LAMMPS (27 Jun 2024)
variable	sname index ch4

units 		electron
newton		on
boundary        f f f

atom_style	electron

read_data  	data.ch4
Reading data file ...
  orthogonal box = (-500 -500 -500) to (500 500 500)
  reading atoms ...
  15 atoms

pair_style      eff/cut 100.0
pair_coeff	* *

comm_modify	vel yes

# Minimize
min_style       cg
compute         1 all property/atom spin eradius
dump            1 all custom 1 ch4.min.lammpstrj id type q c_1[1] c_1[2] x y z
min_modify      line quadratic dmax 0.1
minimize        0 1.0e-6 1000 10000

CITE-CITE-CITE-CITE-CITE-CITE-CITE-CITE-CITE-CITE-CITE-CITE-CITE

Your simulation uses code contributions which should be cited:

- EFF package: doi:10.1002/jcc.21637

@Article{Jaramillo-Botero11,
 author = {A. Jaramillo-Botero and J. Su and A. Qi and Goddard, III, W. A.},
 title = {Large-Scale, Long-Term Nonadiabatic Electron Molecular Dynamics for Describing Material Properties and Phenomena in Extreme Environments},
 journal = {J.~Comp.\ Chem.},
 year =    2011,
 volume =  32,
 number =  3,
 pages =   {497--512}
}

- Type Label Framework: https://doi.org/10.1021/acs.jpcb.3c08419

@Article{Gissinger24,
 author = {Jacob R. Gissinger, Ilia Nikiforov, Yaser Afshar, Brendon Waters, Moon-ki Choi, Daniel S. Karls, Alexander Stukowski, Wonpil Im, Hendrik Heinz, Axel Kohlmeyer, and Ellad B. Tadmor},
 title = {Type Label Framework for Bonded Force Fields in LAMMPS},
 journal = {J. Phys. Chem. B},
 year =    2024,
 volume =  128,
 number =  13,
 pages =   {3282â€“-3297}
}

CITE-CITE-CITE-CITE-CITE-CITE-CITE-CITE-CITE-CITE-CITE-CITE-CITE

Generated 0 of 3 mixed pair_coeff terms from geometric mixing rule
Step          Temp          E_pair         E_mol          TotEng         Press
0   0             -27.314082      0             -27.314082     -56588.53
Loop time of 0.0308104 on 1 procs for 1000 steps with 15 atoms

Minimization stats:
  Stopping criterion = max iterations
  Energy initial, next-to-last, final =
  Force two-norm initial, final = 10.728716 0.00017815706
  Force max component initial, final = 6.1727999 8.2675815e-05
  Final line search alpha, max atom move = 1 8.2675815e-05
  Iterations, force evaluations = 1000 1943

# Dynamics

compute		effTemp all temp/eff

thermo		1000
thermo_style	custom step pe temp press
thermo_modify	temp effTemp

velocity	all create 300.0 4928459 dist gaussian rot yes mom yes

timestep 	0.005
fix 		1 all nve/eff

# the custom dump includes the radii
dump            2 all custom 1000 ch4.nve.lammpstrj id type q c_1[1] c_1[2] x y z
dump		3 all xyz 1000 ch4.nve.xyz

run 		100000
Generated 0 of 3 mixed pair_coeff terms from geometric mixing rule
Step         PotEng          Temp          Press
1000  -34.07448       1050           392.66426
Averages over the last 51 of 101 rows, steps 51000 to 101000:
PotEng Temp Press
-34.0645 524.594 49.0177
Loop time of 2.23163 on 1 procs for 100000 steps with 15 atoms
