LAMMPS (27 Jun 2024)
variable	sname index ch4_ionized

units 		electron
newton		on
boundary        f f f

atom_style	electron

read_data  	data.ch4_ionized
Reading data file ...
  orthogonal box = (-5000 -5000 -5000) to (5000 5000 5000)
  reading atoms ...
  14 atoms

pair_style      eff/cut 5000.0
pair_coeff	* *

comm_modify	vel yes

# minimize

min_style       cg
min_modify      line quadratic
minimize        0 1.0e-6 10000 100000

CITE-CITE-CITE-CITE-CITE-CITE-CITE-CITE-CITE-CITE-CITE-CITE-CITE

Your simulation uses code contributions which should be cited:

- EFF package: doi:10.1002/jcc.21637

@Article{Jaramillo-Botero11,
 author = {A. Jaramillo-Botero and J. Su and A. Qi and Goddard, III, W. A.},
 title = {Large-Scale, Long-Term Nonadiabatic Electron Molecular Dynamics for Describing Material Properties and Phenomena in Extreme Environments},
 journal = {J.~Comp.\ Chem.},
 year =    2011,
 volume =  32,
 number =  3,
 pages =   {497--512}
}

- Type Label Framework: https://doi.org/10.1021/acs.jpcb.3c08419

@Article{Gissinger24,
 author = {Jacob R. Gissinger, Ilia Nikiforov, Yaser Afshar, Brendon Waters, Moon-ki Choi, Daniel S. Karls, Alexander Stukowski, Wonpil Im, Hendrik Heinz, Axel Kohlmeyer, and Ellad B. Tadmor},
 title = {Type Label Framework for Bonded Force Fields in LAMMPS},
 journal = {J. Phys. Chem. B},
 year =    2024,
 volume =  128,
 number =  13,
 pages =   {3282â€“-3297}
}

CITE-CITE-CITE-CITE-CITE-CITE-CITE-CITE-CITE-CITE-CITE-CITE-CITE

Generated 0 of 3 mixed pair_coeff terms from geometric mixing rule
Step          Temp          E_pair         E_mol          TotEng         Press
0   0             -33.560773      0             -33.560773     -2.8388238
Loop time of 0.00921583 on 1 procs for 622 steps with 14 atoms

Minimization stats:
  Stopping criterion = force tolerance
  Energy initial, next-to-last, final =
  Force two-norm initial, final = 1.9929927 3.8799686e-07
  Force max component initial, final = 1.0150646 1.7000116e-07
  Final line search alpha, max atom move = 1 1.7000116e-07
  Iterations, force evaluations = 622 1234

# dynamics
compute		effTemp all temp/eff

thermo		100
thermo_style	custom step etotal pe ke temp press
thermo_modify	temp effTemp

# equilibrate
timestep 	0.001
fix 		1 all nvt/eff temp 300.0 300.0 0.1

# the custom dump includes the radii
compute         1 all property/atom spin eradius
dump            1 all custom 100 ch4_ionized.nvt.lammpstrj id type x y z c_1[1] c_1[2]
dump		2 all xyz 100 ch4_ionized.nvt.xyz

run 		1000000
Generated 0 of 3 mixed pair_coeff terms from geometric mixing rule
Step         TotEng         PotEng         KinEng          Temp          Press
622  -33.804012     -33.804012      0              0              3.0583031e-06
Averages over the last 5001 of 10002 rows, steps 500700 to 1000622:
TotEng PotEng KinEng Temp Press
-33.7934 -33.7991 0.00570451 300.223 0.0349614
Loop time of 5.90316 on 1 procs for 1000000 steps with 14 atoms

fix		2 all nve/eff

run		1000000
Generated 0 of 3 mixed pair_coeff terms from geometric mixing rule
Step         TotEng         PotEng         KinEng          Temp          Press
1000622  -33.796394     -33.799836      0.0034421763   181.15867      1.8982246
Averages over the last 5001 of 10002 rows, steps 1500700 to 2000622:
TotEng PotEng KinEng Temp Press
-33.7927 -33.7985 0.00584339 307.532 0.02687
Loop time of 5.98659 on 1 procs for 1000000 steps with 14 atoms
