LAMMPS (8 Feb 2023)
Processor partition = 0
# Example for an alchemical transformation of two water molecules into a hydronium and hydroxyl ion
# WARNING: This input is intended for demonstrating the method only,
# the force field parameters are mostly made up and NOT suitable for production simulations.

# set up different names for two partitions
variable name world twowater twoions

units real
atom_style full
atom_modify map array
region box block -5 5 -5 5 -5 5
boundary p p p
create_box 2 box bond/types 2 angle/types 2     extra/bond/per/atom 3 extra/angle/per/atom 3 extra/special/per/atom 3
Created orthogonal box = (-5 -5 -5) to (5 5 5)

mass 1 15.9994
mass 2 1.008

pair_style lj/cut/coul/cut 10.0
pair_coeff 1 1 0.1553 3.166
pair_coeff 1 2 0.0    1.0
pair_coeff 2 2 0.0    1.0

bond_style harmonic
bond_coeff * 1000.0 1.0

angle_style harmonic
angle_coeff * 100.0 109.47

molecule water h2o.mol
Read molecule template water:
  1 molecules
  0 fragments
  3 atoms with max type 2
  2 bonds with max type 1
  1 angles with max type 1
  0 dihedrals with max type 0
  0 impropers with max type 0

# create the two molecules we want to transform ...
create_atoms 0 single -2.0 0.0 0.0 mol water 453624
Created 3 atoms
create_atoms 0 single  2.0 0.0 0.0 mol water 767353
Created 3 atoms

# ... and put them in a group
group transform id 1:6
6 atoms in group transform

# now fill the rest of the box with more water
create_atoms 0 random 32 34564 NULL mol water 25367 overlap 1.33
Created 96 atoms

# change topology and settings for the two states
# we cannot simply create a different topology directly or
# load a different data file because the order and position
# of all atoms must be maintained across both replica

# we first have to remove all topology data in the transform group
delete_bonds transform bond 1
System init for delete_bonds ...
Generated 0 of 1 mixed pair_coeff terms from geometric mixing rule
Deleting bonds ...
  68 total bonds, 64 turned on, 4 turned off
  34 total angles, 34 turned on, 0 turned off
  0 total dihedrals, 0 turned on, 0 turned off
  0 total impropers, 0 turned on, 0 turned off
delete_bonds transform angle 1 remove
System init for delete_bonds ...
Generated 0 of 1 mixed pair_coeff terms from geometric mixing rule
Deleting bonds ...
  64 total bonds, 64 turned on, 0 turned off
  32 total angles, 32 turned on, 0 turned off
  0 total dihedrals, 0 turned on, 0 turned off
  0 total impropers, 0 turned on, 0 turned off

# then generate different topologies for the two partitions. select by name.
create_bonds single/bond 2 1 2
Finding 1-2 1-3 1-4 neighbors ...
     2 = max # of 1-2 neighbors
     1 = max # of 1-3 neighbors
     1 = max # of 1-4 neighbors
     7 = max # of special neighbors
create_bonds single/bond 2 1 3
Finding 1-2 1-3 1-4 neighbors ...
     2 = max # of 1-2 neighbors
     1 = max # of 1-3 neighbors
     1 = max # of 1-4 neighbors
     7 = max # of special neighbors
create_bonds single/bond 2 4 5
Finding 1-2 1-3 1-4 neighbors ...
     2 = max # of 1-2 neighbors
     1 = max # of 1-3 neighbors
     1 = max # of 1-4 neighbors
     7 = max # of special neighbors
create_bonds single/bond 2 4 6
Finding 1-2 1-3 1-4 neighbors ...
     2 = max # of 1-2 neighbors
     1 = max # of 1-3 neighbors
     1 = max # of 1-4 neighbors
     7 = max # of special neighbors
create_bonds single/angle 2 2 1 3
Finding 1-2 1-3 1-4 neighbors ...
     2 = max # of 1-2 neighbors
     1 = max # of 1-3 neighbors
     1 = max # of 1-4 neighbors
     7 = max # of special neighbors
create_bonds single/angle 2 5 4 6
Finding 1-2 1-3 1-4 neighbors ...
     2 = max # of 1-2 neighbors
     1 = max # of 1-3 neighbors
     1 = max # of 1-4 neighbors
     7 = max # of special neighbors

velocity all create 300.0 5463576
timestep 0.2

# define ramp variable to combine the two different partitions
variable ramp equal ramp(1.0,0.0)

# since the trajectory and forces are kept identical through fix alchemy,
# we can do fix npt simulations, but we must use the "mixed" pressure

fix integrate all npt temp 300 300 1.0 iso 1.0 1.0 10.0
fix transform all alchemy v_ramp
compute pressure all pressure/alchemy transform
fix_modify integrate press pressure

# only need to output a dump file from one partition

thermo_style custom step temp press etotal density pe ke f_transform f_transform[3]
thermo_modify colname f_transform lambda colname f_transform[3] EPot_mixed
thermo_modify press pressure

thermo 100
run 20000
Generated 0 of 1 mixed pair_coeff terms from geometric mixing rule
Step          Temp          Press          TotEng        Density         PotEng         KinEng         lambda       EPot_mixed
0   300            184631.17     -802.19609      1.0171193     -892.51464      90.318545      1             -892.51464
Averages over the last 101 of 201 rows, steps 10000 to 20000:
Temp Press TotEng Density PotEng KinEng lambda EPot_mixed
297.817 3162.49 133.094 1.02141 43.4326 89.6612 0.25 -172.342
Loop time of 8.92653 on 2 procs for 20000 steps with 102 atoms
