LAMMPS (8 Feb 2023)
Processor partition = 1
# Example for an alchemical transformation simulation of pure copper into an aluminium bronze

# set up different names for two partitions
variable name world pure alloy

# create pure copper system
units metal
lattice fcc 3.75
Lattice spacing in x,y,z = 3.75 3.75 3.75
region box block 0 6 0 6 0 6
create_box 2 box
Created orthogonal box = (0 0 0) to (22.5 22.5 22.5)

timestep 0.002
create_atoms 1 box
Created 864 atoms
displace_atoms all random 0.3 0.3 0.3 57845645
Displacing atoms ...
pair_style eam/alloy
pair_coeff * * AlCu.eam.alloy Cu Al
Reading eam/alloy potential file AlCu.eam.alloy with DATE: 2008-10-01

# replace 5% of copper with aluminium on the second partition only
set type 1 type/fraction 2 0.05 6745234
Setting atom values ...
  37 settings made for type/fraction

# define ramp variable to combine the two different partitions
variable ramp equal ramp(0.0,1.0)

velocity all create 5000.0 6567345
fix 1 all nvt temp 2500.0 500.0 0.002
fix 2 all alchemy v_ramp

compute pressure all pressure/alchemy 2

# only need to output a dump file from one partition

thermo_style custom step temp press etotal density pe ke f_2 f_2[3]
thermo_modify colname f_2 lambda colname f_2[3] EPot_mixed
thermo_modify press pressure

thermo 100
run 10000 post no
Step          Temp          Press          TotEng        Density         PotEng         KinEng         lambda       EPot_mixed
0   5000           2135632.8      11134.401      7.8067107      10576.643      557.75753      0              10353.88
Averages over the last 51 of 101 rows, steps 5000 to 10000:
Temp Press TotEng Density PotEng KinEng lambda EPot_mixed
1001.27 7499.8 -2744.41 7.80671 -2856.1 111.693 0.75 -2849.13
Loop time of 17.7277 on 2 procs for 10000 steps with 864 atoms
