LAMMPS (21 Nov 2023 - Development - patch_21Nov2023-665-g17f869bf5e)
# SRD viscosity demo - rigid star particles

units           lj
atom_style      sphere
atom_modify     map array first big
dimension       2

# read in clusters of rigid bodies

fix             molprop all property/atom mol ghost yes
read_data       data.star fix molprop NULL Molecules
Reading data file ...
  orthogonal box = (-13.293404 -13.293404 -0.5) to (13.293404 13.293404 0.5)
  reading atoms ...
  270 atoms

set             type 1 mass 1.0
Setting atom values ...
  270 settings made for mass
group           big type 1
270 atoms in group big
velocity        big create 1.44 87287 loop geom

# equilibrate big particles

pair_style      soft 1.12
pair_coeff      1 1 0.0
pair_coeff      2 2 0.0 0.0
pair_coeff      1 2 0.0 0.0

variable        prefactor equal ramp(0,60)
fix             soft all adapt 1 pair soft a * * v_prefactor

neighbor        0.3 bin
neigh_modify    delay 0 every 1 check yes

fix             1 big rigid molecule
  30 rigid bodies with 270 atoms
fix             2 all enforce2d

#dump           1 all atom 10 dump.star.equil

compute         tbig all temp/sphere
thermo_modify   temp tbig

thermo          100
run             1000
Generated 0 of 1 mixed pair_coeff terms from geometric mixing rule
Step          Temp          E_pair         E_mol          TotEng         Press
0   1.3101488      0              0              0.21350573     0.32876464
Averages over the last 6 of 11 rows, steps 500 to 1000:
Temp E_pair E_mol TotEng Press
18.7898 15.4698 0 18.5319 2.14748
Loop time of 0.0474374 on 1 procs for 1000 steps with 270 atoms

#undump         1
unfix           soft
unfix           1
unfix           2

# add small particles as hi density lattice

region          plane block INF INF INF INF -0.001 0.001 units box
lattice         sq 85.0
Lattice spacing in x,y,z = 0.10846523 0.10846523 0.10846523
create_atoms    2 region plane
Created 60025 atoms

set             type 2 mass 0.1
Setting atom values ...
  60025 settings made for mass
group           small type 2
60025 atoms in group small
velocity        small create 1.0 593849 loop geom

# delete overlaps
# must set 1-2 cutoff to non-zero value

pair_style      lj/cut 2.5
pair_coeff      1 1 1.0 1.0
pair_coeff      2 2 0.0 1.0 0.0
pair_coeff      1 2 0.0 1.0 0.5

delete_atoms    overlap 0.5 small big
System init for delete_atoms ...
Generated 0 of 1 mixed pair_coeff terms from geometric mixing rule
Deleted 16305 atoms, new total = 43990

# SRD run

reset_timestep  0

neighbor        0.3 multi
neigh_modify    delay 0 every 1 check yes

comm_modify     mode multi group big vel yes
neigh_modify    include big

# no pairwise interactions with small particles

pair_style      lj/cut 2.5
pair_coeff      1 1 1.0 1.0
pair_coeff      2 2 0.0 1.0 0.0
pair_coeff      1 2 0.0 1.0 0.0

# use fix SRD to push small particles out from inside big ones
# if comment out, big particles won't see SRD particles

timestep        0.001

fix             1 big rigid molecule
  30 rigid bodies with 270 atoms
fix             2 small srd 20 big 1.0 0.25 49894 shift yes 54979                   search 0.2 collision slip inside ignore overlap yes
fix             3 small viscosity 10 x y 50
fix             4 all enforce2d

# diagnostics

uncompute       tbig
compute         tbig big temp/sphere
variable        pebig equal pe*atoms/count(big)
variable        ebig equal etotal*atoms/count(big)
thermo_style    custom step temp f_2[8] etotal v_pebig v_ebig press                 f_2[1] f_2[2] f_2[3] f_2[4] f_2[5]                 f_2[6] f_2[7] f_2[8] f_2[9] f_2[10] f_2[11] f_2[12]

thermo_modify   temp tbig
thermo          1000

#dump           1 all atom 1000 dump.star.mp

#dump           1 all image 1000 image.*.jpg type type zoom 1.6
#dump_modify    1 pad 6 adiam 1 1 adiam 2 0.2

run             10000

CITE-CITE-CITE-CITE-CITE-CITE-CITE-CITE-CITE-CITE-CITE-CITE-CITE

Your simulation uses code contributions which should be cited:

- neighbor multi command: doi:10.1016/j.cpc.2008.03.005, doi:10.1007/s40571-020-00361-2

@Article{Intveld08,
 author =  {in 't Veld, P. J. and S. J.~Plimpton and G. S. Grest},
 title =   {Accurate and Efficient Methods for Modeling Colloidal
            Mixtures in an Explicit Solvent using Molecular Dynamics},
 journal = {Comput.\ Phys.\ Commut.},
 year =    2008,
 volume =  179,
 pages =   {320--329}
}

@article{Shire2020,
 author = {Shire, Tom and Hanley, Kevin J. and Stratford, Kevin},
 title = {{DEM} Simulations of Polydisperse Media: Efficient Contact
          Detection Applied to Investigate the Quasi-Static Limit},
 journal = {Computational Particle Mechanics},
 year = {2020}
@article{Monti2022,
 author = {Monti, Joseph M. and Clemmer, Joel T. and Srivastava,
           Ishan and Silbert, Leonardo E. and Grest, Gary S.
           and Lechman, Jeremy B.},
 title = {Large-scale frictionless jamming with power-law particle
          size distributions},
 journal = {Phys. Rev. E},
 volume = {106}
 issue = {3}
 year = {2022}
}

- fix srd command: doi:10.1063/1.3419070

@Article{Petersen10,
 author = {M. K. Petersen and J. B. Lechman and S. J. Plimpton and
 G. S. Grest and in 't Veld, P. J. and P. R. Schunk},
 title =   {Mesoscale Hydrodynamics via Stochastic Rotation
    Dynamics: Comparison with {L}ennard-{J}ones Fluid},
 journal = {J.~Chem.\ Phys.},
 year =    2010,
 volume =  132,
 pages =   174106
}

CITE-CITE-CITE-CITE-CITE-CITE-CITE-CITE-CITE-CITE-CITE-CITE-CITE

Generated 0 of 1 mixed pair_coeff terms from geometric mixing rule
SRD info:
  SRD/big particles = 43720 270
  big particle diameter max/min = 1 1
  SRD temperature & lamda = 1 0.063245553
  SRD max distance & max velocity = 0.25298221 12.649111
  SRD grid counts: 106 106 1
  SRD grid size: request, actual (xyz) = 0.25, 0.25081894 0.25081894 1
  SRD per actual grid cell = 5.5586635
  SRD viscosity = 0.23558168
  big/SRD mass density ratio = 0.14409881
  # of rescaled SRD velocities = 0
  ave/max small velocity = 4.1908497 7.725824
  ave/max big velocity = 2.202625 5.4167964
Step          Temp          f_2[8]         TotEng        v_pebig         v_ebig         Press          f_2[1]         f_2[2]         f_2[3]         f_2[4]         f_2[5]         f_2[6]         f_2[7]         f_2[8]         f_2[9]        f_2[10]        f_2[11]        f_2[12]
0   18.299191      0              0.25067776     37.859815      40.841906      5.7680841      0              0              0              0              0              0              0              0              0              0              0              0
Averages over the last 6 of 11 rows, steps 5000 to 10000:
Temp f_2[8] TotEng v_pebig v_ebig Press f_2[1] f_2[2] f_2[3] f_2[4] f_2[5] f_2[6] f_2[7] f_2[8] f_2[9] f_2[10] f_2[11] f_2[12]
2.45578 8199.67 0.230759 37.1964 37.5966 7.64917 14194 57.1667 57.5 0 6201 28900 11236 8199.67 1.00393 0 245 0
Loop time of 17.933 on 1 procs for 10000 steps with 43990 atoms
