LAMMPS (21 Nov 2023)
## This script first constructs a liquid methane structure of a given size. It then uses fix qtb to equilibrate the computational cell to the specified temperature and pressure.
variable                x_rep equal 2                                                                           #x-direction replication number
variable                y_rep equal 2                                                                           #y-direction replication number
variable                z_rep equal 2                                                                           #z-direction replication number
variable                temperature equal 110.0                                                                 #Target quantum temperature (K in real units)
variable                delta_t equal 0.25                                                                      #MD timestep length (fs in real units)
variable                damp_qtb equal 200                                                                      #1/gamma where gamma is the friction coefficient in quantum thermal bath (fs in real units)

## This part defines units, methane structure, and atomic information
#General
units                   real
dimension               3
boundary                p p p
atom_style              charge

#Lattice
lattice                 custom 1.0                         a1      3.9783624 0 0                         a2      0 3.9783624 0                         a3      0 0 3.9783624                                                 basis   0.5 0.5 0.5                         basis   0.663 0.663 0.663                         basis   0.337 0.337 0.663                         basis   0.663 0.337 0.337                         basis   0.337 0.663 0.337
Lattice spacing in x,y,z = 3.9783624 3.9783624 3.9783624

#Computational Cell
region                  simbox block 0 3.9783624 0 3.9783624 0 3.9783624 units box
create_box              2 simbox
Created orthogonal box = (0 0 0) to (3.9783624 3.9783624 3.9783624)
create_atoms            1 box                         basis   1 1                         basis   2 2                         basis   3 2                         basis   4 2                         basis   5 2
Created 5 atoms
replicate               2 2 2
Replication is creating a 2x2x2 = 8 times larger system...
  orthogonal box = (0 0 0) to (7.9567248 7.9567248 7.9567248)
  40 atoms
  replicate CPU = 0.001 seconds

#Atomic Information
mass                    1 12.011150
mass                    2  1.007970

## This part defines the reax pair potential in methane, force field coefficients are specified in "ffield.reax"
#Pair Potentials
pair_style              reaxff NULL
pair_coeff              * * ffield.reax C H
fix                     0 all qeq/reax 1 0.0 10.0 1.0e-6 reaxff

#Neighbor Style
neighbor                2.5 bin
neigh_modify            every 10 delay 0 check no

#Initialization
velocity                all create 110 93 dist gaussian sum no mom yes rot yes loop all

#Setup output
thermo_style            custom step temp press etotal vol
thermo                  50

#Colored thermal bath
fix                     scapegoat_qtb all nve                                                                   #NVE does the time integration
fix                     methane_qtb all qtb temp 110 damp 200 seed 35082 f_max 0.3 N_f 50
timestep                0.25
run                     1000

CITE-CITE-CITE-CITE-CITE-CITE-CITE-CITE-CITE-CITE-CITE-CITE-CITE

Your simulation uses code contributions which should be cited:

- pair reaxff command: doi:10.1016/j.parco.2011.08.005

@Article{Aktulga12,
 author = {H. M. Aktulga and J. C. Fogarty and S. A. Pandit and A. Y. Grama},
 title = {Parallel Reactive Molecular Dynamics: {N}umerical Methods and Algorithmic Techniques},
 journal = {Parallel Computing},
 year =    2012,
 volume =  38,
 number =  {4--5},
 pages =   {245--259}
}

- fix qeq/reaxff command: doi:10.1016/j.parco.2011.08.005

@Article{Aktulga12,
 author = {H. M. Aktulga and J. C. Fogarty and S. A. Pandit and A. Y. Grama},
 title = {Parallel Reactive Molecular Dynamics: {N}umerical Methods and Algorithmic Techniques},
 journal = {Parallel Computing},
 year =    2012,
 volume =  38,
 pages =   {245--259}
}

CITE-CITE-CITE-CITE-CITE-CITE-CITE-CITE-CITE-CITE-CITE-CITE-CITE

Step          Temp          Press          TotEng         Volume
0   110           -15746.508     -3548.1354      503.73603
Averages over the last 11 of 21 rows, steps 500 to 1000:
Temp Press TotEng Volume
704.804 1595.59 -3389.07 503.736
Loop time of 7.87 on 1 procs for 1000 steps with 40 atoms

unfix                   methane_qtb
unfix                   scapegoat_qtb
