LAMMPS (17 Apr 2024 - Development - patch_17Apr2024-262-g0aff26705c-modified)
# DPD Ionic Fluid

variable    T           equal 1.0
variable    cut_DPD     equal 1.0
variable    seed        equal 165412
variable    lambda      equal 0.25
variable    cut_coul    equal 2.0

#-------------------------------------------------------------------------------
# Initialize LAMMPS run for 3-d periodic
#-------------------------------------------------------------------------------

units                   lj
boundary                p p p # periodic at all axes
atom_style              full
dimension    3

bond_style              none
angle_style             none
dihedral_style          none
improper_style          none

newton on
comm_modify vel yes # store info of ghost atoms btw processors

#-------------------------------------------------------------------------------
# Box creation and configuration
#-------------------------------------------------------------------------------

# Define pair style and coefficients
pair_style dpd/coul/slater/long 1 1 165412 0.25 2

read_data data.dpd_coul_slater_long
Reading data file ...
  orthogonal box = (0 0 0) to (5 5 5)
  reading atoms ...
  375 atoms
  reading velocities ...
  375 velocities
Finding 1-2 1-3 1-4 neighbors ...
     0 = max # of 1-2 neighbors
     0 = max # of 1-3 neighbors
     0 = max # of 1-4 neighbors
     1 = max # of special neighbors

# Enable long range electrostatics solver
kspace_style    pppm       1e-04

# Construct neighbors every steps
neighbor 1.0 bin
neigh_modify every 1 delay 0 check yes

#-------------------------------------------------------------------------------
# Run the simulation
#-------------------------------------------------------------------------------

thermo_style            custom step temp press vol evdwl ecoul elong pe ke fnorm fmax
thermo_modify norm no
thermo                  100

timestep     0.01
run_style    verlet

fix                     1 all nve

run                     1000
PPPM initialization ...
  G vector (1/distance) = 1.4828454
  grid = 20 20 20
  stencil order = 5
  estimated absolute RMS force accuracy = 7.7240141e-05
  estimated relative force accuracy = 7.7240141e-05
  3d grid and FFT values/proc = 24389 8000
Generated 0 of 3 mixed pair_coeff terms from geometric mixing rule
Step          Temp          Press          Volume         E_vdwl         E_coul         E_long         PotEng         KinEng         Fnorm           Fmax
0   0.9849949      69.271905      125            4673.0443      0             -30.365103      4642.6792      552.58214      646.76798      65.851035
Averages over the last 6 of 11 rows, steps 500 to 1000:
Temp Press Volume E_vdwl E_coul E_long PotEng KinEng Fnorm Fmax
1.01421 69.4778 125 4693.74 0 -29.4163 4664.33 568.974 637.295 69.7888
Loop time of 2.10153 on 1 procs for 1000 steps with 375 atoms

unfix           1
