LAMMPS (27 Jun 2024)

# Created 2011-01-07

# General parameters

variable        sname index Si2H6.ang

units           real
newton          on
boundary        f f f

atom_style      electron

read_data       data.Si2H6.ang
Reading data file ...
  orthogonal box = (-529.17725 -529.17725 -529.17725) to (529.17725 529.17725 529.17725)
  reading atoms ...
  22 atoms

pair_style      eff/cut 529.177249 ecp 1 Si
pair_coeff      * *

compute         energies all pair eff/cut
variable        eke equal c_energies[1]
variable        epauli equal c_energies[2]
variable        estatics equal c_energies[3]
variable        errestrain equal c_energies[4]

comm_modify     vel yes

compute         peratom all stress/atom NULL
compute         p all reduce sum c_peratom[1] c_peratom[2] c_peratom[3]
variable        press equal -(c_p[1]+c_p[2]+c_p[3])/(3*vol)

compute         effTemp all temp/eff
compute         effPress all pressure effTemp

thermo          10
thermo_style    custom step etotal pe ke v_eke v_epauli v_estatics v_errestrain temp press v_press
thermo_modify   temp effTemp press effPress

# Minimization

min_style       cg
compute         1 all property/atom spin eradius erforce
min_modify      line quadratic
minimize        0 1.0e-6 2000 10000

CITE-CITE-CITE-CITE-CITE-CITE-CITE-CITE-CITE-CITE-CITE-CITE-CITE

Your simulation uses code contributions which should be cited:

- EFF package: doi:10.1002/jcc.21637

@Article{Jaramillo-Botero11,
 author = {A. Jaramillo-Botero and J. Su and A. Qi and Goddard, III, W. A.},
 title = {Large-Scale, Long-Term Nonadiabatic Electron Molecular Dynamics for Describing Material Properties and Phenomena in Extreme Environments},
 journal = {J.~Comp.\ Chem.},
 year =    2011,
 volume =  32,
 number =  3,
 pages =   {497--512}
}

- Type Label Framework: https://doi.org/10.1021/acs.jpcb.3c08419

@Article{Gissinger24,
 author = {Jacob R. Gissinger, Ilia Nikiforov, Yaser Afshar, Brendon Waters, Moon-ki Choi, Daniel S. Karls, Alexander Stukowski, Wonpil Im, Hendrik Heinz, Axel Kohlmeyer, and Ellad B. Tadmor},
 title = {Type Label Framework for Bonded Force Fields in LAMMPS},
 journal = {J. Phys. Chem. B},
 year =    2024,
 volume =  128,
 number =  13,
 pages =   {3282â€“-3297}
}

CITE-CITE-CITE-CITE-CITE-CITE-CITE-CITE-CITE-CITE-CITE-CITE-CITE

Generated 0 of 3 mixed pair_coeff terms from geometric mixing rule
Step         TotEng         PotEng         KinEng         v_eke         v_epauli      v_estatics    v_errestrain       Temp          Press         v_press
0  -5050.1521     -5050.1521      0              3444.1415      1317.4784     -9811.772       0              0              0.048396025    0.048396025
Loop time of 0.00152986 on 4 procs for 60 steps with 22 atoms

Minimization stats:
  Stopping criterion = force tolerance
  Energy initial, next-to-last, final =
  Force two-norm initial, final = 3250.3463 6.3011213e-07
  Force max component initial, final = 1943.1659 2.7170119e-07
  Final line search alpha, max atom move = 1 2.7170119e-07
  Iterations, force evaluations = 60 98

#undump          1
#undump          2

# Equilibrate at 300K
velocity        all create 300.0 4928459 rot yes mom yes dist gaussian

timestep        0.001

#fix            0 all langevin/eff 300.0 300.0 0.1
fix             1 all nvt/eff temp 300.0 300.0 0.1

run             200000
Generated 0 of 3 mixed pair_coeff terms from geometric mixing rule
Step         TotEng         PotEng         KinEng         v_eke         v_epauli      v_estatics    v_errestrain       Temp          Press         v_press
60  -6240.367      -6259.1461      18.779103      3723.6503      630.21467     -10613.011      0              900            0.00072412613  0.00072412613
Averages over the last 10001 of 20001 rows, steps 100060 to 200060:
TotEng PotEng KinEng v_eke v_epauli v_estatics v_errestrain Temp Press v_press
-6247 -6253.2 6.20399 3710.91 631.09 -10595.2 0 297.33 -3.38033e-05 -5.54859e-05
Loop time of 2.01568 on 4 procs for 200000 steps with 22 atoms
