LAMMPS (21 Nov 2023 - Development - patch_21Nov2023-758-ge33590b2fc-modified)
variable nrun equal 1000
variable dump_count equal 10

variable nwall equal 4
variable w1 equal 67
variable w2 equal 71
variable w3 equal 75
variable w4 equal 79

variable x_cylinder equal 20
variable y_cylinder equal 17
variable r_cylinder equal 4

variable MASS  equal 1
variable TEMP  equal 0.4
variable VFLOW equal 0.5

units         lj
atom_style    atomic

lattice       fcc 0.3
Lattice spacing in x,y,z = 2.3712622 2.3712622 2.3712622
region        sim_box block 0 84 0 34 0 10

boundary      p p p

create_box    2 sim_box
Created orthogonal box = (0 0 0) to (199.18603 80.622915 23.712622)
region        reg_cylinder cylinder z 20 17 4 EDGE EDGE

create_atoms  1 box
Created 114240 atoms

## setup obstacle ##
group  g_obst region reg_cylinder
1950 atoms in group g_obst
group  g_flow subtract all g_obst
112290 atoms in group g_flow
set    group g_obst type 2
Setting atom values ...
  1950 settings made for type

mass          1 1
mass          2 1

velocity  g_flow create 0.4 4928459 rot yes dist gaussian
velocity  g_obst set    0.0 0.0 0.0

pair_style  lj/cut 1.122462
pair_coeff  1 1 1.0 1.0
pair_coeff  1 2 1.0 1.0
pair_coeff  2 2 1.0 1.0
pair_modify shift yes

neighbor      0.3 bin
neigh_modify  delay 0 every 20 check no

fix    1     g_flow nve
fix    2     g_flow wall/flow  x 0.5 0.4 123 4 67 71 75 79

variable dump_every equal 1000/10
variable thermo_every equal 100
variable restart_every equal 1000/10

##### uncomment for grid aggregation #####
#variable gr_Nx equal 42
#variable gr_Ny equal 17
#variable gr_Nz equal 1
#variable gr_Nrepeat equal 1
##########################################

#compute ct_Temp   g_flow temp/com
#thermo_style custom step temp epair emol etotal press c_ct_Temp

timestep 0.005
thermo   100
run      1000

CITE-CITE-CITE-CITE-CITE-CITE-CITE-CITE-CITE-CITE-CITE-CITE-CITE

Your simulation uses code contributions which should be cited:

- fix wall/flow command: doi:10.1177/10943420231213013

@Article{Pavlov-etal-IJHPCA-2024,
 author = {Daniil Pavlov and Vladislav Galigerov and Daniil Kolotinskii and Vsevolod Nikolskiy and Vladimir Stegailov},
 title = {GPU-based molecular dynamics of fluid flows: Reaching for turbulence},
 journal = {The International Journal of High Performance Computing Applications},
 year =    2024,
 volume =  38,
 number =  1,
 pages =   34-49
}

CITE-CITE-CITE-CITE-CITE-CITE-CITE-CITE-CITE-CITE-CITE-CITE-CITE

Generated 0 of 1 mixed pair_coeff terms from geometric mixing rule
Step          Temp          E_pair         E_mol          TotEng         Press
0   0.39317221     0              0              0.58975315     0.11795063
Averages over the last 6 of 11 rows, steps 500 to 1000:
Temp E_pair E_mol TotEng Press
0.378964 0.0367641 0 0.605205 0.249233
Loop time of 2.20347 on 4 procs for 1000 steps with 114240 atoms
