LAMMPS (17 Apr 2024 - Development - patch_5May2020-18508-g3c0eaf6870-modified)
# ------ 2D dam break ------ #

dimension          2
units              lj
atom_style         rheo
boundary           f s p
comm_modify        vel yes
newton             off

# ------ Create simulation box ------ #

variable           n equal 1.0
variable           cut equal 2.2
variable           dx equal 3.0

region             box block -1 150 -1 80 -0.1 0.1 units box
create_box         2 box
Created orthogonal box = (-1 -1 -0.1) to (150 80 0.1)
lattice            hex 1
Lattice spacing in x,y,z = 1.0745699 1.8612097 1.0745699

region             fluid block $(xlo+v_dx+1.0) $(xlo+40.0) $(ylo+v_dx+1.0) $(yhi-20.0) EDGE EDGE units box
region             fluid block 3 $(xlo+40.0) $(ylo+v_dx+1.0) $(yhi-20.0) EDGE EDGE units box
region             fluid block 3 39 $(ylo+v_dx+1.0) $(yhi-20.0) EDGE EDGE units box
region             fluid block 3 39 2.991900000000000226 $(yhi-20.0) EDGE EDGE units box
region             fluid block 3 39 2.991900000000000226 60.008099999999998886 EDGE EDGE units box
region             walls1 block $(xlo+v_dx) $(xhi-v_dx) $(ylo+v_dx) $(yhi-v_dx) EDGE EDGE side out units box
region             walls1 block 2 $(xhi-v_dx) $(ylo+v_dx) $(yhi-v_dx) EDGE EDGE side out units box
region             walls1 block 2 147 $(ylo+v_dx) $(yhi-v_dx) EDGE EDGE side out units box
region             walls1 block 2 147 1.9919000000000000039 $(yhi-v_dx) EDGE EDGE side out units box
region             walls1 block 2 147 1.9919000000000000039 77.008099999999998886 EDGE EDGE side out units box
region             walls2 block EDGE EDGE EDGE $(yhi-v_dx) EDGE EDGE side in units box
region             walls2 block EDGE EDGE EDGE 77.008099999999998886 EDGE EDGE side in units box
region             walls intersect 2 walls1 walls2

create_atoms       1 region fluid
Created 2044 atoms
create_atoms       2 region walls
Created 1002 atoms

group              fluid type 1
2044 atoms in group fluid
group              rig type 2
1002 atoms in group rig

# ------ Model parameters ------ #

variable           rho0 equal 1.0
variable           mp equal 1/1
variable           cs equal 1.0
variable           zeta equal 0.1
variable           dt_max equal  0.1*2.2/1/3
variable           eta equal 0.1
variable           Dr equal 0.1

mass               1 1
mass               2 $(2*v_mp)
mass               2 2
set                group all rheo/rho 1
Setting atom values ...
  3046 settings made for rheo/rho

set                group all rheo/status 0
Setting atom values ...
  3046 settings made for rheo/status
set                group rig rheo/status 1
Setting atom values ...
  1002 settings made for rheo/status

timestep           0.0733333333333333

pair_style         rheo 2.2 artificial/visc 0.1
pair_coeff         * *

# ------ Fixes & computes ------ #

fix                1 all rheo 2.2 quintic 10                               surface/detection coordination 22 8                               rho/sum
fix                2 all rheo/viscosity * constant 0.1
fix                3 all rheo/pressure * linear
fix                4 all gravity 1e-3 vector 0 -1 0
fix                5 rig setforce 0.0 0.0 0.0
fix                6 all enforce2d

compute            rho all rheo/property/atom rho
compute            p all rheo/property/atom pressure
compute            surf all rheo/property/atom surface
compute            sn all rheo/property/atom surface/n/x surface/n/y

# ------ Output & Run ------ #

thermo             20
thermo_style       custom step time ke press

dump               1 all custom 200 atomDump id type x y vx vy fx fy c_rho c_surf c_p c_sn[*]

run                30000

CITE-CITE-CITE-CITE-CITE-CITE-CITE-CITE-CITE-CITE-CITE-CITE-CITE

Your simulation uses code contributions which should be cited:

- @article{PalermoInPrep,
 journal = {in prep},
 title = {RHEO: A Hybrid Mesh-Free Model Framework for Dynamic Multi-Phase Flows},
 year = {2024},
 author = {Eric T. Palermo and Ki T. Wolf and Joel T. Clemmer and Thomas C. O'Connor},
}

CITE-CITE-CITE-CITE-CITE-CITE-CITE-CITE-CITE-CITE-CITE-CITE-CITE

Generated 0 of 1 mixed pair_coeff terms from geometric mixing rule
Step          Time          KinEng         Press
0   0              0             -8.9662357e-06
Averages over the last 751 of 1501 rows, steps 15000 to 30000:
KinEng Press
0.00121655 0.000301877
Loop time of 120.806 on 4 procs for 30000 steps with 3046 atoms
