LAMMPS (7 Feb 2024 - Development - patch_7Feb2024_update1-373-g7ac84e18dd)
# Ca-O melt with Pedone potential

units metal
atom_style charge

lattice fcc 4.8105  # experimental lattice parameter for fcc-lattice Ca cations
Lattice spacing in x,y,z = 4.8105 4.8105 4.8105

region box block 0 4 0 4 0 4
create_box 2 box
Created orthogonal box = (0 0 0) to (19.242 19.242 19.242)
create_atoms 1 box
Created 256 atoms

lattice fcc 4.8105 origin 0.5 0.5 0.5 # O anion lattice shifted by half a unit cell
Lattice spacing in x,y,z = 4.8105 4.8105 4.8105
create_atoms 2 box
Created 256 atoms

mass 1 40.078
mass 2 15.999

set type 1 charge 1.2
Setting atom values ...
  256 settings made for charge
set type 2 charge -1.2
Setting atom values ...
  256 settings made for charge

timestep 0.002
neigh_modify delay 5 every 1 check yes

pair_style hybrid/overlay pedone 15.0 coul/long 15.0
kspace_style pppm 1.0e-6

pair_coeff * * coul/long
pair_coeff 1 2 pedone 0.030211 2.241334 2.923245 5.0
pair_coeff 2 2 pedone 0.042395 1.379316 3.618701 22.0

velocity all create 6000.0 98347

fix 1 all nvt temp 3000.0 3000.0 0.1

# dump 1 all atom 500 Ca-O-melt.lammpstrj

thermo 100
run 1000
PPPM initialization ...
  G vector (1/distance) = 0.23676226
  grid = 24 24 24
  stencil order = 5
  estimated absolute RMS force accuracy = 1.3089053e-05
  estimated relative force accuracy = 9.089844e-07
  3d grid and FFT values/proc = 11191 3456
Generated 0 of 1 mixed pair_coeff terms from geometric mixing rule
Step          Temp          E_pair         E_mol          TotEng         Press
0   6000          -3771.5568      0             -3375.2452      34213.185
Averages over the last 6 of 11 rows, steps 500 to 1000:
Temp E_pair E_mol TotEng Press
2945.07 -3569.03 0 -3374.5 117840
Loop time of 4.50395 on 4 procs for 1000 steps with 512 atoms
