LAMMPS (27 Jun 2024)
# demo for atom style template simulating a cyclohexane methane mixture
# part 3: continuing from restart file

# run the first part and write out restart
include in.template-mix
# demo for atom style template simulating a cyclohexane methane mixture
# part 1: creating system with create_atoms

units real
boundary p p p
molecule cychex cyclohexane.mol
Read molecule template cychex:
LAMMPS molecule file. Cyclohexane(UA)
  1 molecules
  0 fragments
  6 atoms with max type 1
  6 bonds with max type 1
  6 angles with max type 1
  6 dihedrals with max type 1
  0 impropers with max type 0
atom_style template cychex

pair_style lj/cut 12.0
pair_modify mix geometric tail yes
bond_style harmonic
angle_style harmonic
dihedral_style harmonic

lattice sc 6.0
Lattice spacing in x,y,z = 6 6 6
variable boxlen index 4.0
region box block -4.0 4.0 -4.0 4.0 -4.0 4.0 units lattice
create_box 2 box bond/types 1 angle/types 1 dihedral/types 1
Created orthogonal box = (-24 -24 -24) to (24 24 24)

create_atoms 0 box mol cychex 734594
Created 3072 atoms
create_atoms 2 random 800 495437 box
Created 800 atoms

mass 1 14.027
mass 2 16.043

pair_coeff 1 1  0.1180  3.905
pair_coeff 2 2  0.2940  3.730

bond_coeff      1  260.00 1.5260
angle_coeff     1  63.0   112.40
dihedral_coeff  1  2.0 1 3

thermo 100
minimize 0.001 0.001 500 1000
Generated 1 of 1 mixed pair_coeff terms from geometric mixing rule
Step          Temp          E_pair         E_mol          TotEng         Press
0   0              4.3897851e+13  341.92144      4.3897851e+13  1.0886888e+14
Loop time of 2.46574 on 1 procs for 190 steps with 3872 atoms

Minimization stats:
  Stopping criterion = energy tolerance
  Energy initial, next-to-last, final =
  Force two-norm initial, final = 1.1080994e+15 72.745546
  Force max component initial, final = 4.6607099e+14 17.390179
  Final line search alpha, max atom move = 0.0041638487 0.072410076
  Iterations, force evaluations = 190 297

reset_timestep 0

velocity all create 100.0 6234235
fix 1 all nvt temp 100.0 300.0 1.0
# dump 1 all custom 100 cychex-methane.lammpstrj id xu yu zu
run 2500
Generated 1 of 1 mixed pair_coeff terms from geometric mixing rule
Step          Temp          E_pair         E_mol          TotEng         Press
0   100           -6191.8196      457.61266     -4580.3354      4842.371
Averages over the last 13 of 26 rows, steps 1300 to 2500:
Temp E_pair E_mol TotEng Press
251.45 -5192.62 1400.5 -890.717 8854.12
Loop time of 16.1773 on 1 procs for 2500 steps with 3872 atoms

#write_data template-mix.data
#write_restart template-mix.restart
write_restart template-mix.restart
System init for write_restart ...
Generated 1 of 1 mixed pair_coeff terms from geometric mixing rule

# now restart
clear
molecule cychex cyclohexane.mol
Read molecule template cychex:
LAMMPS molecule file. Cyclohexane(UA)
  1 molecules
  0 fragments
  6 atoms with max type 1
  6 bonds with max type 1
  6 angles with max type 1
  6 dihedrals with max type 1
  0 impropers with max type 0
read_restart template-mix.restart
Reading restart file ...
  restart file = 27 Jun 2024, LAMMPS = 27 Jun 2024
  restoring atom style template from restart
  orthogonal box = (-24 -24 -24) to (24 24 24)
  restoring pair style lj/cut from restart
  restoring bond style harmonic from restart
  restoring angle style harmonic from restart
  restoring dihedral style harmonic from restart
  3872 atoms
  3072 template bonds
  3072 template angles
  3072 template dihedrals
  read_restart CPU = 0.001 seconds

thermo 100

fix 1 all nvt temp 300.0 300.0 1.0
  fix style: nvt, fix ID: 1
# dump 1 all custom 100 custom template-mix.lammpstrj id xu yu zu
run 2000
Generated 1 of 1 mixed pair_coeff terms from geometric mixing rule
All restart file global fix info was re-assigned
Step          Temp          E_pair         E_mol          TotEng         Press
2500   296.10218     -4928.5152      1698.282       186.40572      10946.864
Averages over the last 11 of 21 rows, steps 3500 to 4500:
Temp E_pair E_mol TotEng Press
301.78 -4994.79 1698.72 186.075 9729.49
Loop time of 13.2399 on 1 procs for 2000 steps with 3872 atoms

# clean up
shell rm template-mix.restart
