LAMMPS (27 Jun 2024)
# ------ 2D oxidizing bar ------ #

dimension          2
units              lj
atom_style         hybrid rheo/thermal bond
boundary           m m p
comm_modify        vel yes
newton             off

region             box block -60 60 0 80 -0.01 0.01 units box
create_box         3 box bond/types 2 extra/bond/per/atom 20 extra/special/per/atom 50
Created orthogonal box = (-60 0 -0.01) to (60 80 0.01)

region             lbar block -15 0 3 80 EDGE EDGE units box
region             rbar block 0 15 3 80 EDGE EDGE units box
region             bar union 2 lbar rbar
region             floor block EDGE EDGE EDGE 3.0 EDGE EDGE units box

lattice            hex 1.0
Lattice spacing in x,y,z = 1.0745699 1.8612097 1.0745699
create_atoms       1 region bar
Created 2255 atoms
create_atoms       3 region floor
Created 446 atoms

set                region rbar type 2
Setting atom values ...
  1148 settings made for type
group              bar type 1 2
2255 atoms in group bar
group              rbar type 2
1148 atoms in group rbar
group              floor type 3
446 atoms in group floor

set                group all sph/e 0.0
Setting atom values ...
  2701 settings made for sph/e
set                group all rheo/status 1
Setting atom values ...
  2701 settings made for rheo/status

# ------ Model parameters ------#

variable           cut equal 3.0
variable           n equal 1.0
variable           rho0 equal 1.0
variable           cs equal 1.0
variable           mp equal 1/1
variable           zeta equal 0.05
variable           kappa equal 0.1*1/1
variable           dt_max equal 0.1*3/1/3
variable           eta equal 0.05
variable           Cv equal 1.0
variable           L equal 0.1
variable           Tf equal 1.0

mass               * 1
timestep           0.1

pair_style         hybrid/overlay rheo 3 artificial/visc 0.05 rheo/solid
pair_coeff         * * rheo
pair_coeff         * * rheo/solid 1.0 1.0 1.0

special_bonds      lj 0.0 1.0 1.0 coul 0.0 1.0 1.0
Finding 1-2 1-3 1-4 neighbors ...
     0 = max # of 1-2 neighbors
   101 = max # of special neighbors
create_bonds       many bar bar 1 0 1.5
Generated 0 of 3 mixed pair_coeff terms from geometric mixing rule
Added 6547 bonds, new total = 6547
Finding 1-2 1-3 1-4 neighbors ...
     6 = max # of 1-2 neighbors
   101 = max # of special neighbors
special_bonds      lj 0.0 1.0 1.0 coul 1.0 1.0 1.0

bond_style         hybrid bpm/spring rheo/shell t/form 100
bond_coeff         1 bpm/spring 1.0 1.0 1.0
bond_coeff         2 rheo/shell 0.2 0.2 0.1

# ------ Apply dynamics ------#

# Note: surface detection is not performed on solid bodies, so cannot use surface property
compute         coord all rheo/property/atom coordination
variable        surf atom c_coord<22
group           surf dynamic all var surf every 10
dynamic group surf defined

fix             1 all rheo 3 quintic 0                            thermal                            shift                            surface/detection coordination 22 8
fix             2 all rheo/viscosity * constant 0.05
fix             3 all rheo/pressure * linear
fix             4 all rheo/thermal conductivity * constant 0.1                                    specific/heat * constant 1                                    Tfreeze * constant 1                                    latent/heat * constant 0.1                                    react 1.5 1

fix             5 rbar rheo/oxidation 1.5 2 1.0
fix             6 all wall/harmonic ylo EDGE 2.0 1.0 1.0
fix             7 all gravity 5e-5 vector 0 -1 0
fix             8 floor setforce 0.0 0.0 0.0
fix             9 surf add/heat linear 1.1 0.5
fix             10 floor add/heat constant 0 overwrite yes # fix the temperature of the floor
fix             11 all enforce2d

compute         surf all rheo/property/atom surface
compute         rho all rheo/property/atom rho
compute         phase all rheo/property/atom phase
compute         temp all rheo/property/atom temperature
compute         eng all rheo/property/atom energy
compute         nbond_shell all rheo/property/atom nbond/shell
compute         nbond_solid all nbond/atom bond/type 1

# ------ Output & Run ------ #

thermo          200
thermo_style    custom step time ke press atoms

#dump            1 all custom 200 atomDump id type x y vx vy fx fy c_phase c_temp c_eng c_nbond_solid c_nbond_shell c_rho c_surf

run             40000

CITE-CITE-CITE-CITE-CITE-CITE-CITE-CITE-CITE-CITE-CITE-CITE-CITE

Your simulation uses code contributions which should be cited:

- BPM bond style: doi:10.1039/D3SM01373A

@Article{Clemmer2024,
 author =  {Clemmer, Joel T. and Monti, Joseph M. and Lechman, Jeremy B.},
 title =   {A soft departure from jamming: the compaction of deformable
            granular matter under high pressures},
 journal = {Soft Matter},
 year =    2024,
 volume =  20,
 number =  8,
 pages =   {1702--1718}
}

- @article{PalermoInPrep,
 journal = {in prep},
 title = {RHEO: A Hybrid Mesh-Free Model Framework for Dynamic Multi-Phase Flows},
 year = {2024},
 author = {Eric T. Palermo and Ki T. Wolf and Joel T. Clemmer and Thomas C. O'Connor},
}

- @article{ApplMathModel.130.310,
 title = {A hybrid smoothed-particle hydrodynamics model of oxide skins on molten aluminum},
 journal = {Applied Mathematical Modelling},
 volume = {130},
 pages = {310-326},
 year = {2024},
 issn = {0307-904X},
 doi = {https://doi.org/10.1016/j.apm.2024.02.027},
 author = {Joel T. Clemmer and Flint Pierce and Thomas C. O'Connor and Thomas D. Nevins and Elizabeth M.C. Jones and Jeremy B. Lechman and John Tencer},
}

CITE-CITE-CITE-CITE-CITE-CITE-CITE-CITE-CITE-CITE-CITE-CITE-CITE

Generated 0 of 3 mixed pair_coeff terms from geometric mixing rule
Step          Time          KinEng         Press         Atoms
0   0              0              0                   2701
Averages over the last 101 of 201 rows, steps 20000 to 40000:
KinEng Press Atoms
0.000135999 0.000156907 2701
Loop time of 169.513 on 4 procs for 40000 steps with 2701 atoms
