LAMMPS (21 Nov 2023)
# REAX potential for high energy CHON systems
# .....

units           real

atom_style      charge
read_data       data.RDX
Reading data file ...
  orthogonal box = (0 0 0) to (25 25 25)
  reading atoms ...
  105 atoms

pair_style      reaxff lmp_control
pair_coeff      * * ffield.reax.rdx H C O N
Reading potential file ffield.reax.rdx with DATE: 2010-02-19

neighbor        2 bin
neigh_modify    every 10 delay 0 check no

fix             1 all nve
fix             2 all qeq/reax 1 0.0 10.0 1e-6 param.qeq
fix             3 all temp/berendsen 500.0 500.0 100.0

timestep        0.25
thermo 100
#dump           1 all atom 30 dump.reax.rdx

run             3000

CITE-CITE-CITE-CITE-CITE-CITE-CITE-CITE-CITE-CITE-CITE-CITE-CITE

Your simulation uses code contributions which should be cited:

- pair reaxff command: doi:10.1016/j.parco.2011.08.005

@Article{Aktulga12,
 author = {H. M. Aktulga and J. C. Fogarty and S. A. Pandit and A. Y. Grama},
 title = {Parallel Reactive Molecular Dynamics: {N}umerical Methods and Algorithmic Techniques},
 journal = {Parallel Computing},
 year =    2012,
 volume =  38,
 number =  {4--5},
 pages =   {245--259}
}

- fix qeq/reaxff command: doi:10.1016/j.parco.2011.08.005

@Article{Aktulga12,
 author = {H. M. Aktulga and J. C. Fogarty and S. A. Pandit and A. Y. Grama},
 title = {Parallel Reactive Molecular Dynamics: {N}umerical Methods and Algorithmic Techniques},
 journal = {Parallel Computing},
 year =    2012,
 volume =  38,
 pages =   {245--259}
}

CITE-CITE-CITE-CITE-CITE-CITE-CITE-CITE-CITE-CITE-CITE-CITE-CITE

Step          Temp          E_pair         E_mol          TotEng         Press
0   0             -10197.932      0             -10197.932      38.347492
Averages over the last 16 of 31 rows, steps 1500 to 3000:
Temp E_pair E_mol TotEng Press
480.014 -10086.6 0 -9937.84 700.762
Loop time of 5.35022 on 1 procs for 3000 steps with 105 atoms
