LAMMPS (17 Apr 2024 - Development - patch_5May2020-18508-g3c0eaf6870-modified)
# ------ 2D Taylor Green vortex ------ #

dimension          2
units              lj
atom_style         rheo
boundary           p p p
comm_modify        vel yes
newton off

# ------ Create simulation box ------ #

variable           n equal 1.0
variable           cut equal 3.0

region             box block 0 40 0 40 -0.01 0.01
create_box         1 box
Created orthogonal box = (0 0 -0.01) to (40 40 0.01)
lattice            sq 1
Lattice spacing in x,y,z = 1 1 1

create_atoms       1 region box
Created 1600 atoms

displace_atoms     all random 0.1 0.1 0 135414 units box
Displacing atoms ...

# ------ Model parameters ------ #

variable           rho0 equal 1.0
variable           mp equal 1/1
variable           cs equal 1.0
variable           eta equal 0.05
variable           zeta equal 1
variable           dt_max equal 0.1*3/1/3
variable           Dr equal 0.1*3*1

mass               * 1
set                group all rheo/rho 1
Setting atom values ...
  1600 settings made for rheo/rho
set                group all rheo/status 0
Setting atom values ...
  1600 settings made for rheo/status

variable           u0 equal 0.05
variable           uy atom  0.05*sin(2*PI*x/lx)*cos(2*PI*y/ly)
variable           ux atom -0.05*sin(2*PI*y/ly)*cos(2*PI*x/ly)
variable           d0 atom 1-0.05*0.05*1*0.25*(cos(4*PI*x/lx)+cos(4*PI*y/ly))/1/1

velocity           all set v_ux v_uy 0.0 units box

timestep           0.1

pair_style         rheo 3 artificial/visc 1 rho/damp 0.3
pair_coeff         * *

# ------ Fixes & computes ------ #

fix                1 all rheo 3 RK1 8 shift
fix                2 all rheo/viscosity * constant 0.05
fix                3 all rheo/pressure * linear
fix                4 all enforce2d

compute            rho all rheo/property/atom rho

# ------ Output & Run ------ #

thermo             200
thermo_style       custom step time ke press

dump               1 all custom 200 atomDump id type x y vx vy fx fy c_rho

run 10000

CITE-CITE-CITE-CITE-CITE-CITE-CITE-CITE-CITE-CITE-CITE-CITE-CITE

Your simulation uses code contributions which should be cited:

- @article{PalermoInPrep,
 journal = {in prep},
 title = {RHEO: A Hybrid Mesh-Free Model Framework for Dynamic Multi-Phase Flows},
 year = {2024},
 author = {Eric T. Palermo and Ki T. Wolf and Joel T. Clemmer and Thomas C. O'Connor},
}

CITE-CITE-CITE-CITE-CITE-CITE-CITE-CITE-CITE-CITE-CITE-CITE-CITE

Generated 0 of 0 mixed pair_coeff terms from geometric mixing rule
Step          Time          KinEng         Press
0   0              0.00062497276  0.00062607301
Averages over the last 26 of 51 rows, steps 5000 to 10000:
KinEng Press
1.65671e-05 2.00324e-05
Loop time of 38.2006 on 4 procs for 10000 steps with 1600 atoms
