LAMMPS (28 Mar 2023 - Development)
# 2d rounded polygon bodies

variable    r     index 4
variable    steps index 100000
variable    T     index 0.5
variable    P     index 0.1
variable    seed  index 980411

units       lj
dimension   2

atom_style  body rounded/polygon 1 6
atom_modify map array
read_data   data.squares
Reading data file ...
  orthogonal box = (0 0 -0.5) to (12 12 0.5)
  reading atoms ...
  2 atoms
  2 bodies

replicate   $r $r 1
replicate   4 $r 1
replicate   4 4 1
Replication is creating a 4x4x1 = 16 times larger system...
  orthogonal box = (0 0 -0.5) to (48 48 0.5)
  32 atoms
  replicate CPU = 0.001 seconds

velocity    all create 0.5 980411 dist gaussian mom yes rot yes

variable cut_inner  equal 0.5
variable k_n        equal 100
variable k_na       equal 2
variable c_n        equal 1
variable c_t        equal 1
variable mu         equal 0.1
variable delta_ua   equal 0.5

pair_style body/rounded/polygon 1 1 0.1 0.5 0.5
pair_coeff * * 100 2

comm_modify vel yes

neighbor     0.5 bin
neigh_modify every 1 delay 0 check yes

timestep     0.001

#fix         1 all nve/body
#fix         1 all nvt/body temp $T $T 1.0
fix          1 all npt/body temp $T $T 1.0 x 0.001 $P 1.0              y 0.001 $P 1.0 couple xy fixedpoint 0 0 0
fix          1 all npt/body temp 0.5 $T 1.0 x 0.001 $P 1.0              y 0.001 $P 1.0 couple xy fixedpoint 0 0 0
fix          1 all npt/body temp 0.5 0.5 1.0 x 0.001 $P 1.0              y 0.001 $P 1.0 couple xy fixedpoint 0 0 0
fix          1 all npt/body temp 0.5 0.5 1.0 x 0.001 0.1 1.0              y 0.001 $P 1.0 couple xy fixedpoint 0 0 0
fix          1 all npt/body temp 0.5 0.5 1.0 x 0.001 0.1 1.0              y 0.001 0.1 1.0 couple xy fixedpoint 0 0 0

fix          2 all enforce2d

#compute      1 all body/local id 1 2 3
#dump         1 all local 100000 dump.polygon.* index c_1[1] c_1[2] c_1[3] c_1[4]

thermo_style custom step ke pe etotal press
thermo       1000

#dump	     2 all image 10000 image.*.jpg type type zoom 2.0 #             adiam 1.5 body type 0 0
#dump_modify  2 pad 6

run          100000
Generated 0 of 0 mixed pair_coeff terms from geometric mixing rule
Step         KinEng         PotEng         TotEng         Press
0   0.484375       0.25           0.734375       0.0067274306
Averages over the last 51 of 101 rows, steps 50000 to 100000:
KinEng PotEng TotEng Press
0.641158 -0.0300713 0.611086 0.0727055
Loop time of 2.55809 on 4 procs for 100000 steps with 32 atoms
