LAMMPS (28 Mar 2023 - Development)
# 2d polygon nparticle bodies

units		lj
dimension       2
atom_style	body nparticle 2 6

read_data       data.body
Reading data file ...
  orthogonal box = (-15.532225 -15.532225 -0.5) to (15.532225 15.532225 0.5)
  reading atoms ...
  100 atoms
  100 bodies

velocity	all create 1.44 87287 loop geom

pair_style	body/nparticle 5.0
pair_coeff	* * 1.0 1.0

neighbor	0.5 bin
neigh_modify    every 1 delay 0 check yes

fix		1 all nve/body
#fix		1 all nvt/body temp 1.44 1.44 1.0
fix		2 all enforce2d

#compute         1 all body/local type 1 2 3
#dump            1 all local 100 dump.body index c_1[1] c_1[2] c_1[3] c_1[4]

#dump		2 all image 1000 image.*.jpg type type #		zoom 1.6 adiam 1.5 body type 1.0 0
#dump_modify    2 pad 5

thermo          100
run		10000
Generated 0 of 0 mixed pair_coeff terms from geometric mixing rule
Step          Temp          E_pair         E_mol          TotEng         Press
0   1.44          -0.63799525     0              0.78760475    -0.15028724
Averages over the last 51 of 101 rows, steps 5000 to 10000:
Temp E_pair E_mol TotEng Press
1.7207 -1.69991 0 0.00357433 0.256339
Loop time of 1.09582 on 1 procs for 10000 steps with 100 atoms
