LAMMPS (21 Nov 2023 - Development - patch_21Nov2023-665-g17f869bf5e)
# SRD viscosity demo - ellipsoids

units           lj
atom_style      ellipsoid
atom_modify     first big
dimension       2

# create big ellipsoidal particles

lattice         sq 0.14
Lattice spacing in x,y,z = 2.6726124 2.6726124 2.6726124
region          box block 0 10 0 10 -0.5 0.5
create_box      2 box
Created orthogonal box = (0 0 -1.3363062) to (26.726124 26.726124 1.3363062)
create_atoms    1 region box
Created 100 atoms

set             type 1 mass 1.0
Setting atom values ...
  100 settings made for mass
set             type 1 shape 3.0 1.0 1.0
Setting atom values ...
  100 settings made for shape
group           big type 1
100 atoms in group big
set             group big quat/random 29898
Setting atom values ...
  100 settings made for quat/random

velocity        big create 1.44 87287 loop geom

# equilibrate big particles

pair_style      gayberne 1.0 3.0 1.0 4.0
pair_coeff      1 1 1.0 1.0 1 1 1 1 1 1
pair_coeff      1 2 1.0 1.0 1 1 1 1 1 1 0.0
pair_coeff      2 2 1.0 1.0 1 1 1 1 1 1 0.0

neighbor        0.3 bin
neigh_modify    delay 0 every 1 check yes

fix             1 big nve/asphere
fix             2 all enforce2d

compute         rot big temp/asphere
compute         0 all property/atom quatw quati quatj quatk shapex shapey shapez

#dump           1 all custom 10 dump.ellipsoid.equil id type x y z c_0[*]
#dump_modify    1 colname c_0[1] quatw colname c_0[2] quati colname c_0[3] quatj colname c_0[4] quatk #                 colname c_0[5] shapex colname c_0[6] shapey colname c_0[7] shapez

thermo_style    custom step temp c_rot epair etotal press
thermo          100

run             1000

CITE-CITE-CITE-CITE-CITE-CITE-CITE-CITE-CITE-CITE-CITE-CITE-CITE

Your simulation uses code contributions which should be cited:

- pair gayberne command: doi:10.1063/1.3058435

@Article{Brown09,
 author =  {W. M. Brown and M. K. Petersen and S. J. Plimpton and G. S. Grest},
 title =   {Liquid Crystal Nanodroplets in Solution},
 journal = {J.~Chem.\ Phys.},
 year =    2009,
 volume =  130,
 number =  4,
 pages =   {044901}
}

CITE-CITE-CITE-CITE-CITE-CITE-CITE-CITE-CITE-CITE-CITE-CITE-CITE

Generated 0 of 1 mixed pair_coeff terms from geometric mixing rule
Step          Temp          c_rot          E_pair         TotEng         Press
0   1.44           0.95677852     2.7038078      4.1294078      10.518912
Averages over the last 6 of 11 rows, steps 500 to 1000:
Temp c_rot E_pair TotEng Press
2.80907 2.87649 -0.476649 2.30433 0.864024
Loop time of 0.192844 on 1 procs for 1000 steps with 100 atoms

#undump         1
unfix           1
unfix           2

# add small particles as hi density lattice

region          plane block INF INF INF INF -0.001 0.001 units box
lattice         sq 120.0
Lattice spacing in x,y,z = 0.091287093 0.091287093 0.091287093
create_atoms    2 region plane
Created 85849 atoms

set             type 2 mass 0.01
Setting atom values ...
  85849 settings made for mass
group           small type 2
85849 atoms in group small
velocity        small create 1.0 593849 loop geom

# delete overlaps
# must set 1-2 cutoff to non-zero value

pair_style      lj/cut 2.5
pair_coeff      1 1 1.0 1.0
pair_coeff      2 2 0.0 1.0 0.0
pair_coeff      1 2 0.0 1.0 2.0

neigh_modify    one 10000

delete_atoms    overlap 1.6 small big
System init for delete_atoms ...
Generated 0 of 1 mixed pair_coeff terms from geometric mixing rule
Deleted 71060 atoms, new total = 14889

# SRD run

reset_timestep  0

neighbor        0.3 multi
neigh_modify    delay 0 every 1 check yes

comm_modify     mode multi group big vel yes
neigh_modify    include big

# no pairwise interactions with small particles

pair_style      gayberne 1.0 3.0 1.0 4.0
pair_coeff      1 1 1.0 1.0 1 1 1 1 1 1
pair_coeff      1 2 1.0 1.0 1 1 1 1 1 1 0.0
pair_coeff      2 2 1.0 1.0 1 1 1 1 1 1 0.0

# use fix SRD to push small particles out from inside big ones
# if comment out, big particles won't see SRD particles

timestep        0.0005

fix             1 big nve/asphere
fix             2 small srd 20 big 1.0 0.25 49894 shift yes 54979                   collision noslip search 0.2 inside ignore exact no bounce 50
fix             3 small viscosity 20 x y 50
fix             4 all enforce2d

# diagnostics

compute         tbig big temp/asphere
variable        pebig equal pe*atoms/count(big)
variable        ebig equal etotal*atoms/count(big)
thermo_style    custom step temp c_rot f_2[9] etotal v_pebig v_ebig press                 f_2[1] f_2[2] f_2[3] f_2[4] f_2[5]                 f_2[6] f_2[7] f_2[8] f_2[9] f_2[10] f_2[11] f_2[12]

thermo_modify   temp tbig
thermo          1000

#dump           1 all custom 500 dump.ellipsoid id type x y z c_0[*]
#dump_modify    1 colname c_0[1] quatw colname c_0[2] quati colname c_0[3] quatj colname c_0[4] quatk #                 colname c_0[5] shapex colname c_0[6] shapey colname c_0[7] shapez

#dump           1 all image 500 image.*.jpg type type zoom 1.6
#dump_modify    1 pad 6 adiam 1 1 adiam 2 0.2

run             10000

CITE-CITE-CITE-CITE-CITE-CITE-CITE-CITE-CITE-CITE-CITE-CITE-CITE

Your simulation uses code contributions which should be cited:

- neighbor multi command: doi:10.1016/j.cpc.2008.03.005, doi:10.1007/s40571-020-00361-2

@Article{Intveld08,
 author =  {in 't Veld, P. J. and S. J.~Plimpton and G. S. Grest},
 title =   {Accurate and Efficient Methods for Modeling Colloidal
            Mixtures in an Explicit Solvent using Molecular Dynamics},
 journal = {Comput.\ Phys.\ Commut.},
 year =    2008,
 volume =  179,
 pages =   {320--329}
}

@article{Shire2020,
 author = {Shire, Tom and Hanley, Kevin J. and Stratford, Kevin},
 title = {{DEM} Simulations of Polydisperse Media: Efficient Contact
          Detection Applied to Investigate the Quasi-Static Limit},
 journal = {Computational Particle Mechanics},
 year = {2020}
@article{Monti2022,
 author = {Monti, Joseph M. and Clemmer, Joel T. and Srivastava,
           Ishan and Silbert, Leonardo E. and Grest, Gary S.
           and Lechman, Jeremy B.},
 title = {Large-scale frictionless jamming with power-law particle
          size distributions},
 journal = {Phys. Rev. E},
 volume = {106}
 issue = {3}
 year = {2022}
}

- fix srd command: doi:10.1063/1.3419070

@Article{Petersen10,
 author = {M. K. Petersen and J. B. Lechman and S. J. Plimpton and
 G. S. Grest and in 't Veld, P. J. and P. R. Schunk},
 title =   {Mesoscale Hydrodynamics via Stochastic Rotation
    Dynamics: Comparison with {L}ennard-{J}ones Fluid},
 journal = {J.~Chem.\ Phys.},
 year =    2010,
 volume =  132,
 pages =   174106
}

CITE-CITE-CITE-CITE-CITE-CITE-CITE-CITE-CITE-CITE-CITE-CITE-CITE

Generated 0 of 1 mixed pair_coeff terms from geometric mixing rule
SRD info:
  SRD/big particles = 14789 100
  big particle diameter max/min = 3 1
  SRD temperature & lamda = 1 0.1
  SRD max distance & max velocity = 0.4 40
  SRD grid counts: 107 107 1
  SRD grid size: request, actual (xyz) = 0.25, 0.24977686 0.24977686 2.6726124
  SRD per actual grid cell = 1.9275711
  SRD viscosity = 0.68810145
  big/SRD mass density ratio = 1.3736715
  # of rescaled SRD velocities = 0
  ave/max small velocity = 13.30933 24.335888
  ave/max big velocity = 2.0802836 5.05672
Step          Temp          c_rot          f_2[9]         TotEng        v_pebig         v_ebig         Press          f_2[1]         f_2[2]         f_2[3]         f_2[4]         f_2[5]         f_2[6]         f_2[7]         f_2[8]         f_2[9]        f_2[10]        f_2[11]        f_2[12]
0   2.9005012      2.9005012      0              0.025582147   -0.51282088     3.8089259      0.8986241      0              0              0              0              0              0              0              0              0              0              0              0
Averages over the last 6 of 11 rows, steps 5000 to 10000:
Temp c_rot f_2[9] TotEng v_pebig v_ebig Press f_2[1] f_2[2] f_2[3] f_2[4] f_2[5] f_2[6] f_2[7] f_2[8] f_2[9] f_2[10] f_2[11] f_2[12]
2.24806 2.24806 1.01639 0.0163237 -0.919173 2.43043 0.83979 16229.8 41.3333 42 0 1629.67 38416 11449 4331.33 1.01639 27 50 0
Loop time of 9.02679 on 1 procs for 10000 steps with 14889 atoms
