LAMMPS (3 Aug 2023)
Processor partition = 2
variable ibead uloop 99 pad

units metal
atom_style atomic
atom_modify map yes
boundary p p p
pair_style lj/cut 9.5251
read_data data.metalnpt03
Reading data file ...
  orthogonal box = (-11.876697 -11.876697 -11.876697) to (11.876697 11.876697 11.876697)
  reading atoms ...
  200 atoms
  reading velocities ...
  200 velocities

pair_coeff    * * 0.00965188 3.4
pair_modify shift yes

mass 1 39.948

timestep 0.001

velocity all create 0.0 03

fix 1 all pimd/langevin method pimd ensemble nvt integrator obabo thermostat PILE_L 1234 tau 1.0 temp 113.15 taup 1.0 fixcom no

thermo_style custom step temp f_1[*] vol press
thermo 100
thermo_modify norm no

# dump_modify dcd sort id format line "%d %d %.16f %.16f %.16f %.16f %.16f %.16f %d %d %d %.16f %.16f %.16f"

run 1000
Generated 0 of 0 mixed pair_coeff terms from geometric mixing rule
Step          Temp          f_1[1]         f_1[2]         f_1[3]         f_1[4]         f_1[5]         f_1[6]         f_1[7]         f_1[8]         f_1[9]        f_1[10]         Volume         Press
0   0              0              8.4016332     -7.320388       4.3005229      3.3062167      0              0             -1743.5332      0              0              13402.228     -175.34503
Averages over the last 6 of 11 rows, steps 500 to 1000:
Temp f_1[1] f_1[2] f_1[3] f_1[4] f_1[5] f_1[6] f_1[7] f_1[8] f_1[9] f_1[10] Volume Press
324.549 8.34829 7.03572 -7.58944 30.5904 3.30622 0 0 -1743.53 0.000853379 171.923 13402.2 279.367
Loop time of 0.16666 on 1 procs for 1000 steps with 200 atoms
