LAMMPS (21 Nov 2023 - Development - patch_21Nov2023-665-g17f869bf5e)
# SRD diffusion demo - dimer particles

units           lj
atom_style      sphere
atom_modify     map array first big
dimension       2

# read in clusters of rigid bodies

fix             molprop all property/atom mol ghost yes
read_data       data.dimer fix molprop NULL Molecules
Reading data file ...
  orthogonal box = (-9.341652 -9.341652 -0.5) to (9.341652 9.341652 0.5)
  reading atoms ...
  200 atoms

set             type 1 mass 1.0
Setting atom values ...
  200 settings made for mass
group           big type 1
200 atoms in group big
velocity        big create 1.44 87287 loop geom

# equilibrate big particles

pair_style      soft 1.12
pair_coeff      1 1 0.0
pair_coeff      2 2 0.0 0.0
pair_coeff      1 2 0.0 0.0

variable        prefactor equal ramp(0,60)
fix             soft all adapt 1 pair soft a * * v_prefactor

fix             1 big rigid molecule
  100 rigid bodies with 200 atoms
fix             2 all enforce2d

#dump           1 all atom 10 dump.dimer.equil

thermo          100
run             1000
Generated 0 of 1 mixed pair_coeff terms from geometric mixing rule
Step          Temp          E_pair         E_mol          TotEng         Press
0   3.4028231      0              0              0.83369167    -0.55065517
Averages over the last 6 of 11 rows, steps 500 to 1000:
Temp E_pair E_mol TotEng Press
17.1388 9.22572 0 13.4247 5.41408
Loop time of 0.0511113 on 1 procs for 1000 steps with 200 atoms

#undump         1
unfix           soft
unfix           1
unfix           2

# add small particles as hi density lattice

region          plane block INF INF INF INF -0.001 0.001 units box
lattice         sq 85.0
Lattice spacing in x,y,z = 0.10846523 0.10846523 0.10846523
create_atoms    2 region plane
Created 29929 atoms

set             type 2 mass 0.1
Setting atom values ...
  29929 settings made for mass
group           small type 2
29929 atoms in group small
velocity        small create 1.0 593849 loop geom

# delete overlaps
# must set 1-2 cutoff to non-zero value

pair_style      lj/cut 2.5
pair_coeff      1 1 1.0 1.0
pair_coeff      2 2 0.0 1.0 0.0
pair_coeff      1 2 0.0 1.0 0.5

delete_atoms    overlap 0.5 small big
System init for delete_atoms ...
Generated 0 of 1 mixed pair_coeff terms from geometric mixing rule
Deleted 12776 atoms, new total = 17353

# SRD run

reset_timestep  0

neighbor        0.3 multi
neigh_modify    delay 0 every 1 check yes

comm_modify     mode multi group big vel yes
neigh_modify    include big

# no pairwise interactions with small particles

pair_style      lj/cut 2.5
pair_coeff      1 1 1.0 1.0
pair_coeff      2 2 0.0 1.0 0.0
pair_coeff      1 2 0.0 1.0 0.0

# use fix SRD to push small particles out from inside big ones
# if comment out, big particles won't see SRD particles

timestep        0.001

fix             1 big rigid molecule
  100 rigid bodies with 200 atoms
fix             2 small srd 20 big 1.0 0.25 49894 shift yes 54979                   search 0.2 collision slip inside ignore overlap yes
fix             3 all enforce2d

# diagnostics

compute         tbig big temp/sphere
variable        pebig equal pe*atoms/count(big)
variable        ebig equal etotal*atoms/count(big)
thermo_style    custom step temp f_2[8] etotal v_pebig v_ebig press                 f_2[1] f_2[2] f_2[3] f_2[4] f_2[5]                 f_2[6] f_2[7] f_2[8] f_2[9] f_2[10] f_2[11] f_2[12]

thermo_modify   temp tbig
thermo          1000

#dump           1 all atom 1000 dump.dimer

#dump           1 all image 1000 image.*.jpg type type zoom 1.6
#dump_modify    1 pad 6 adiam 1 1 adiam 2 0.2

run             10000

CITE-CITE-CITE-CITE-CITE-CITE-CITE-CITE-CITE-CITE-CITE-CITE-CITE

Your simulation uses code contributions which should be cited:

- neighbor multi command: doi:10.1016/j.cpc.2008.03.005, doi:10.1007/s40571-020-00361-2

@Article{Intveld08,
 author =  {in 't Veld, P. J. and S. J.~Plimpton and G. S. Grest},
 title =   {Accurate and Efficient Methods for Modeling Colloidal
            Mixtures in an Explicit Solvent using Molecular Dynamics},
 journal = {Comput.\ Phys.\ Commut.},
 year =    2008,
 volume =  179,
 pages =   {320--329}
}

@article{Shire2020,
 author = {Shire, Tom and Hanley, Kevin J. and Stratford, Kevin},
 title = {{DEM} Simulations of Polydisperse Media: Efficient Contact
          Detection Applied to Investigate the Quasi-Static Limit},
 journal = {Computational Particle Mechanics},
 year = {2020}
@article{Monti2022,
 author = {Monti, Joseph M. and Clemmer, Joel T. and Srivastava,
           Ishan and Silbert, Leonardo E. and Grest, Gary S.
           and Lechman, Jeremy B.},
 title = {Large-scale frictionless jamming with power-law particle
          size distributions},
 journal = {Phys. Rev. E},
 volume = {106}
 issue = {3}
 year = {2022}
}

- fix srd command: doi:10.1063/1.3419070

@Article{Petersen10,
 author = {M. K. Petersen and J. B. Lechman and S. J. Plimpton and
 G. S. Grest and in 't Veld, P. J. and P. R. Schunk},
 title =   {Mesoscale Hydrodynamics via Stochastic Rotation
    Dynamics: Comparison with {L}ennard-{J}ones Fluid},
 journal = {J.~Chem.\ Phys.},
 year =    2010,
 volume =  132,
 pages =   174106
}

CITE-CITE-CITE-CITE-CITE-CITE-CITE-CITE-CITE-CITE-CITE-CITE-CITE

Generated 0 of 1 mixed pair_coeff terms from geometric mixing rule
SRD info:
  SRD/big particles = 17153 200
  big particle diameter max/min = 1 1
  SRD temperature & lamda = 1 0.063245553
  SRD max distance & max velocity = 0.25298221 12.649111
  SRD grid counts: 75 75 1
  SRD grid size: request, actual (xyz) = 0.25, 0.24911072 0.24911072 1
  SRD per actual grid cell = 5.544404
  SRD viscosity = 0.23553122
  big/SRD mass density ratio = 0.14250828
  # of rescaled SRD velocities = 0
  ave/max small velocity = 4.191188 7.6900178
  ave/max big velocity = 2.6813242 7.1846104
Step          Temp          f_2[8]         TotEng        v_pebig         v_ebig         Press          f_2[1]         f_2[2]         f_2[3]         f_2[4]         f_2[5]         f_2[6]         f_2[7]         f_2[8]         f_2[9]        f_2[10]        f_2[11]        f_2[12]
0   6.8392143      0              0.297476       20.71529       25.810505      4.0555741      0              0              0              0              0              0              0              0              0              0              0              0
Averages over the last 6 of 11 rows, steps 5000 to 10000:
Temp f_2[8] TotEng v_pebig v_ebig Press f_2[1] f_2[2] f_2[3] f_2[4] f_2[5] f_2[6] f_2[7] f_2[8] f_2[9] f_2[10] f_2[11] f_2[12]
1.18277 3390 0.246122 20.4736 21.3548 8.80299 13250 63 63 0.833333 6352.33 16900 5625 3390 1.168 0 19.5 0
Loop time of 7.18514 on 1 procs for 10000 steps with 17353 atoms
