LAMMPS (17 Apr 2024 - Development - patch_5May2020-18508-g3c0eaf6870-modified)
# ------ 2D water balloon ------ #

dimension          2
units              lj
atom_style         hybrid rheo bond
boundary           m m p
comm_modify        vel yes
newton             off

region             box block -40 40 0 80 -0.01 0.01 units box
create_box         1 box bond/types 1 extra/bond/per/atom 15 extra/special/per/atom 50
Created orthogonal box = (-40 0 -0.01) to (40 80 0.01)

region             fluid sphere -10 40 0 30 units box side in
lattice            hex 1.0
Lattice spacing in x,y,z = 1.0745699 1.8612097 1.0745699
create_atoms       1 region fluid
Created 2830 atoms

region             shell sphere -10 40 0 27 units box side out
group              shell region shell
544 atoms in group shell

set                group shell rheo/status 1
Setting atom values ...
  544 settings made for rheo/status
set                group all vx 0.005 vy -0.04
Setting atom values ...
  2830 settings made for vx
  2830 settings made for vy

# ------ Model parameters ------#

variable           cut equal 3.0
variable           n equal 1.0
variable           rho0 equal 1.0
variable           cs equal 1.0
variable           mp equal 1/1
variable           zeta equal 0.05
variable           kappa equal 0.01*1/1
variable           dt_max equal 0.1*3/1/3
variable           eta equal 0.05
variable           Cv equal 1.0
variable           L equal 1.0
variable           Tf equal 1.0

mass               * 1
timestep           0.1

pair_style         hybrid/overlay rheo 3 artificial/visc 0.05 rheo/solid
pair_coeff         * * rheo
pair_coeff         * * rheo/solid 1.0 1.0 1.0

special_bonds      lj 0.0 1.0 1.0 coul 0.0 1.0 1.0
Finding 1-2 1-3 1-4 neighbors ...
     0 = max # of 1-2 neighbors
   101 = max # of special neighbors
create_bonds       many shell shell 1 0 1.5
Generated 0 of 0 mixed pair_coeff terms from geometric mixing rule
Added 1263 bonds, new total = 1263
Finding 1-2 1-3 1-4 neighbors ...
     6 = max # of 1-2 neighbors
   101 = max # of special neighbors
special_bonds      lj 0.0 1.0 1.0 coul 1.0 1.0 1.0

bond_style         bpm/spring
bond_coeff         1 1.0 1.0 1.0

# A lower critical strain allows the balloon to pop
#bond_coeff         1 1.0 0.05 1.0

# ------ Drop balloon ------#

fix             1 all rheo 3 quintic 0                            shift                            surface/detection coordination 22 8
fix             2 all rheo/viscosity * constant 0.05
fix             3 all rheo/pressure * linear
fix             4 all wall/harmonic ylo EDGE 2.0 1.0 1.0
fix             5 all enforce2d

compute         rho all rheo/property/atom rho
compute         phase all rheo/property/atom phase
compute         nbond all nbond/atom

# ------ Output & Run ------ #

thermo          200
thermo_style    custom step time ke press atoms

dump            1 all custom 200 atomDump id type x y vx vy fx fy c_phase c_nbond c_rho
run             30000

CITE-CITE-CITE-CITE-CITE-CITE-CITE-CITE-CITE-CITE-CITE-CITE-CITE

Your simulation uses code contributions which should be cited:

- BPM bond style: doi:10.1039/D3SM01373A

@Article{Clemmer2024,
 author =  {Clemmer, Joel T. and Monti, Joseph M. and Lechman, Jeremy B.},
 title =   {A soft departure from jamming: the compaction of deformable
            granular matter under high pressures},
 journal = {Soft Matter},
 year =    2024,
 volume =  20,
 number =  8,
 pages =   {1702--1718}
}

- @article{PalermoInPrep,
 journal = {in prep},
 title = {RHEO: A Hybrid Mesh-Free Model Framework for Dynamic Multi-Phase Flows},
 year = {2024},
 author = {Eric T. Palermo and Ki T. Wolf and Joel T. Clemmer and Thomas C. O'Connor},
}

CITE-CITE-CITE-CITE-CITE-CITE-CITE-CITE-CITE-CITE-CITE-CITE-CITE

Generated 0 of 0 mixed pair_coeff terms from geometric mixing rule
Step          Time          KinEng         Press         Atoms
0   0              0.0008125      0.00035927734       2830
Averages over the last 76 of 151 rows, steps 15000 to 30000:
KinEng Press Atoms
0.000257934 5.8891e-05 2830
Loop time of 177.982 on 4 procs for 30000 steps with 2830 atoms
