LAMMPS (28 Mar 2023)
Processor partition = 1
variable ibead uloop 32 pad

units lj
atom_style atomic
atom_modify map yes
boundary p p p
pair_style lj/cut 2.8015
read_data data.lj02
Reading data file ...
  orthogonal box = (-3.4945131 -3.4945131 -3.4945131) to (3.4945131 3.4945131 3.4945131)
  reading atoms ...
  200 atoms

pair_coeff    * * 1.0 1.0
pair_modify shift yes

mass 1 1.0

timestep 0.00044905847

fix 1 all pimd/langevin ensemble nvt integrator obabo temp 1.00888 lj 0.00965188 3.4 39.948 4.135667403e-3 1.03646168908e-4 thermostat PILE_L 02

thermo_style custom step temp f_1[*] vol press
thermo 100
thermo_modify norm no

#dump_modify dcd sort id format line "%d %d %.16f %.16f %.16f %.16f %.16f %.16f %d %d %d %.16f %.16f %.16f"

run 1000
Generated 0 of 0 mixed pair_coeff terms from geometric mixing rule

Initializing PI Langevin equation thermostat...
Bead ID    |    omega    |    tau    |    c1    |    c2
PILE_L thermostat successfully initialized!

Step          Temp          f_1[1]         f_1[2]         f_1[3]         f_1[4]         f_1[5]         f_1[6]         f_1[7]         f_1[8]         f_1[9]        f_1[10]         Volume         Press
0   0              0              843646.47     -904.74343      841866.06     -843041.14      253.30998      382.47517     -1646.2945     -1.9663356     -0.82731217     341.38937     -0.58528882
Averages over the last 6 of 11 rows, steps 500 to 1000:
Temp f_1[1] f_1[2] f_1[3] f_1[4] f_1[5] f_1[6] f_1[7] f_1[8] f_1[9] f_1[10] Volume Press
2.04867 611.527 594.522 -520.3 2945.32 10.806 1247.38 308.977 0.0211019 11.8052 6.97373 341.389 5.44692
Loop time of 0.20118 on 1 procs for 1000 steps with 200 atoms
