LAMMPS (21 Nov 2023)
# REAX potential for VOH system
# .....

units           real

atom_style      charge
read_data       data.VOH
Reading data file ...
  orthogonal box = (0 0 0) to (25 25 25)
  reading atoms ...
  100 atoms

pair_style      reaxff lmp_control
pair_coeff      * * ffield.reax.V_O_C_H H C O V
Reading potential file ffield.reax.V_O_C_H with DATE: 2011-02-18

neighbor        2 bin
neigh_modify    every 10 delay 0 check no

fix             1 all nve
fix             2 all qeq/reax 1 0.0 10.0 1e-6 param.qeq
fix             3 all temp/berendsen 500.0 500.0 100.0

timestep        0.25

#dump           1 all atom 30 dump.reax.voh
thermo 100
run             2000

CITE-CITE-CITE-CITE-CITE-CITE-CITE-CITE-CITE-CITE-CITE-CITE-CITE

Your simulation uses code contributions which should be cited:

- pair reaxff command: doi:10.1016/j.parco.2011.08.005

@Article{Aktulga12,
 author = {H. M. Aktulga and J. C. Fogarty and S. A. Pandit and A. Y. Grama},
 title = {Parallel Reactive Molecular Dynamics: {N}umerical Methods and Algorithmic Techniques},
 journal = {Parallel Computing},
 year =    2012,
 volume =  38,
 number =  {4--5},
 pages =   {245--259}
}

- fix qeq/reaxff command: doi:10.1016/j.parco.2011.08.005

@Article{Aktulga12,
 author = {H. M. Aktulga and J. C. Fogarty and S. A. Pandit and A. Y. Grama},
 title = {Parallel Reactive Molecular Dynamics: {N}umerical Methods and Algorithmic Techniques},
 journal = {Parallel Computing},
 year =    2012,
 volume =  38,
 pages =   {245--259}
}

CITE-CITE-CITE-CITE-CITE-CITE-CITE-CITE-CITE-CITE-CITE-CITE-CITE

Step          Temp          E_pair         E_mol          TotEng         Press
0   0             -10246.825      0             -10246.825      42.256092
Averages over the last 11 of 21 rows, steps 1000 to 2000:
Temp E_pair E_mol TotEng Press
455.3 -10190.9 0 -10056.5 23.2614
Loop time of 1.16101 on 4 procs for 2000 steps with 100 atoms
