LAMMPS (21 Nov 2023 - Development - patch_21Nov2023-665-g17f869bf5e)
# Aspherical shear demo - 3d triangle boxes, solvated by SRD particles

units           lj
atom_style      tri
atom_modify     first big map yes

read_data       data.tri.srd
Reading data file ...
  orthogonal box = (-8.4373405 -8.4373405 -8.4373405) to (8.4373405 8.4373405 8.4373405)
  reading atoms ...
  1500 atoms
  1500 triangles

# add small particles as hi density lattice

lattice         sc 0.4
Lattice spacing in x,y,z = 1.3572088 1.3572088 1.3572088
region          box block INF INF INF INF INF INF
lattice         sc 20.0
Lattice spacing in x,y,z = 0.36840315 0.36840315 0.36840315
create_atoms    2 region box
Created 91125 atoms

group           big type 1
1500 atoms in group big
group           small type 2
91125 atoms in group small
set             group small mass 0.01
Setting atom values ...
  91125 settings made for mass

# delete overlaps
# must set 1-2 cutoff to non-zero value

pair_style      lj/cut 1.5
pair_coeff      1 1 1.0 1.0
pair_coeff      2 2 0.0 1.0 0.0
pair_coeff      1 2 0.0 1.0

delete_atoms    overlap 1.5 small big
System init for delete_atoms ...
Generated 0 of 1 mixed pair_coeff terms from geometric mixing rule
Deleted 76354 atoms, new total = 16271

# SRD run

reset_timestep  0

velocity        small create 1.44 87287 loop geom

neighbor        0.3 multi
neigh_modify    delay 0 every 1 check yes
neigh_modify    exclude molecule/intra big include big

comm_modify     mode multi group big vel yes
neigh_modify    include big

# no pairwise interactions with small particles

pair_style      tri/lj 3.5
pair_coeff      1 1 0.1 1.0
pair_coeff      2 2 0.0 1.0 0.0
pair_coeff      1 2 0.0 1.0 0.0

# use fix SRD to push small particles out from inside big ones
# if comment out, big particles won't see SRD particles

timestep        0.001

fix             1 big rigid/small molecule #langevin 1.0 1.0 0.1 12398
  125 rigid bodies with 1500 atoms
  1.8601881 = max distance from body owner to body atom
fix             2 small srd 20 big 1.0 1.0 49894                 search 0.2 cubic warn 0.0001 shift yes 49829                 overlap yes collision noslip inside ignore

fix             3 all deform 1 x scale 0.8 y scale 0.8 z scale 0.8

# diagnostics

compute         tsmall small temp/deform
compute         tbig big temp
variable        pebig equal pe*atoms/count(big)
variable        ebig equal etotal*atoms/count(big)

compute_modify  tbig extra/dof -4500

compute         1 big erotate/asphere
compute         2 all ke
compute         3 all pe
variable        toteng equal (c_1+c_2+c_3)/atoms

thermo          100
thermo_style    custom step f_1 c_tsmall temp press f_2[9] f_2[4]
thermo_modify   temp tbig

compute         10 all property/atom corner1x corner1y corner1z                 corner2x corner2y corner2z corner3x corner3y corner3z

#dump           1 all custom 500 dump1.atom.srd id type x y z ix iy iz
#dump           2 all custom 500 dump1.tri.srd id type #               c_10[1] c_10[2] c_10[3] c_10[4] c_10[5] c_10[6] #               c_10[7] c_10[8] c_10[9]

run             1000

CITE-CITE-CITE-CITE-CITE-CITE-CITE-CITE-CITE-CITE-CITE-CITE-CITE

Your simulation uses code contributions which should be cited:

- neighbor multi command: doi:10.1016/j.cpc.2008.03.005, doi:10.1007/s40571-020-00361-2

@Article{Intveld08,
 author =  {in 't Veld, P. J. and S. J.~Plimpton and G. S. Grest},
 title =   {Accurate and Efficient Methods for Modeling Colloidal
            Mixtures in an Explicit Solvent using Molecular Dynamics},
 journal = {Comput.\ Phys.\ Commut.},
 year =    2008,
 volume =  179,
 pages =   {320--329}
}

@article{Shire2020,
 author = {Shire, Tom and Hanley, Kevin J. and Stratford, Kevin},
 title = {{DEM} Simulations of Polydisperse Media: Efficient Contact
          Detection Applied to Investigate the Quasi-Static Limit},
 journal = {Computational Particle Mechanics},
 year = {2020}
@article{Monti2022,
 author = {Monti, Joseph M. and Clemmer, Joel T. and Srivastava,
           Ishan and Silbert, Leonardo E. and Grest, Gary S.
           and Lechman, Jeremy B.},
 title = {Large-scale frictionless jamming with power-law particle
          size distributions},
 journal = {Phys. Rev. E},
 volume = {106}
 issue = {3}
 year = {2022}
}

- fix srd command: doi:10.1063/1.3419070

@Article{Petersen10,
 author = {M. K. Petersen and J. B. Lechman and S. J. Plimpton and
 G. S. Grest and in 't Veld, P. J. and P. R. Schunk},
 title =   {Mesoscale Hydrodynamics via Stochastic Rotation
    Dynamics: Comparison with {L}ennard-{J}ones Fluid},
 journal = {J.~Chem.\ Phys.},
 year =    2010,
 volume =  132,
 pages =   174106
}

CITE-CITE-CITE-CITE-CITE-CITE-CITE-CITE-CITE-CITE-CITE-CITE-CITE

Generated 0 of 1 mixed pair_coeff terms from geometric mixing rule
SRD info:
  SRD/big particles = 14771 1500
  big particle diameter max/min = 2.9202881 0.87320391
  SRD temperature & lamda = 1 0.2
  SRD max distance & max velocity = 0.8 40
  SRD grid counts: 17 17 17
  SRD grid size: request, actual (xyz) = 1, 0.99262829 0.99262829 0.99262829
  SRD per actual grid cell = -3.9971745
  SRD viscosity = -34.162587
  big/SRD mass density ratio = -3.3753691
  # of rescaled SRD velocities = 0
  ave/max small velocity = 19.970837 35.150443
  ave/max big velocity = 0 0
Step          f_1          c_tsmall         Temp          Press          f_2[9]         f_2[4]
0   0              1.4502537      0             -0.15976045     0              0
Averages over the last 6 of 11 rows, steps 500 to 1000:
f_1 c_tsmall Temp Press f_2[9] f_2[4]
6.84128 1.02324 4.97891 5.91311 0.992639 1326.5
Loop time of 79.2664 on 1 procs for 1000 steps with 16271 atoms

#undump          1
#undump          2
unfix           3

change_box      all triclinic
Changing box ...
  triclinic box = (-6.7498724 -6.7498724 -6.7498724) to (6.7498724 6.7498724 6.7498724) with tilt (0 0 0)

fix             2 small srd 20 big 1.0 1.0 49894                 search 0.2 cubic warn 0.0001 shift yes 49829                 overlap yes collision noslip tstat yes inside ignore

#dump           1 all custom 500 dump2.atom.srd id type x y z ix iy iz
#dump           2 all custom 500 dump2.tri.srd id type #               c_10[1] c_10[2] c_10[3] c_10[4] c_10[5] c_10[6] #               c_10[7] c_10[8] c_10[9]

fix             3 all deform 1 xy erate 0.05 units box remap v

run             2000
Generated 0 of 1 mixed pair_coeff terms from geometric mixing rule
SRD info:
  SRD/big particles = 14771 1500
  big particle diameter max/min = 2.9202881 0.87320391
  SRD temperature & lamda = 1 0.2
  SRD max distance & max velocity = 0.8 40
  SRD grid counts: 13 13 13
  SRD grid size: request, actual (xyz) = 1, 1.0384419 1.0384419 1.0384419
  SRD per actual grid cell = -2.775698
  SRD viscosity = -12.180602
  big/SRD mass density ratio = -5.5653033
  # of rescaled SRD velocities = 3
  ave/max small velocity = 16.23763 40
  ave/max big velocity = 1.9825234 5.257255
Step          f_1          c_tsmall         Temp          Press          f_2[9]         f_2[4]
1000   9.8719995      1.0317167      6.98982        4.0948969      0              0
Averages over the last 11 of 21 rows, steps 2000 to 3000:
f_1 c_tsmall Temp Press f_2[9] f_2[4]
3.70216 1.00148 2.37049 6.68438 1 106.455
Loop time of 206.387 on 1 procs for 2000 steps with 16271 atoms
