LAMMPS (29 Aug 2024 - Development - patch_29Aug2024-296-g061c80104a-modified)
# Aspherical shear demo - 2d line boxes, solvated by SRD particles

units           lj
atom_style      line
atom_modify     first big
dimension       2

read_data       data.line.srd
Reading data file ...
  orthogonal box = (-28.796757 -28.796757 -0.5) to (28.796757 28.796757 0.5)
  reading atoms ...
  400 atoms
  400 lines

# add small particles as hi density lattice

lattice         sq 0.4
Lattice spacing in x,y,z = 1.5811388 1.5811388 1.5811388
region          plane block INF INF INF INF -0.001 0.001
lattice         sq 10.0
Lattice spacing in x,y,z = 0.31622777 0.31622777 0.31622777
create_atoms    2 region plane
Created 33489 atoms

group           big type 1
400 atoms in group big
group           small type 2
33489 atoms in group small
set             group small mass 0.01
Setting atom values ...
  33489 settings made for mass

# delete overlaps
# must set 1-2 cutoff to non-zero value

pair_style      lj/cut  1.5
pair_coeff      1 1 1.0 1.0
pair_coeff      2 2 0.0 1.0 0.0
pair_coeff      1 2 1.0 1.0

delete_atoms    overlap 1.5 small big
System init for delete_atoms ...
Generated 0 of 1 mixed pair_coeff terms from geometric mixing rule
Deleted 13605 atoms, new total = 20284

# SRD run

reset_timestep  0

velocity        small create 1.44 87287 loop geom

neighbor        0.8 multi
neigh_modify    delay 0 every 1 check yes
neigh_modify    exclude molecule/intra big include big

comm_modify     mode multi group big vel yes
neigh_modify    include big

# no pairwise interactions with small particles

pair_style      line/lj 2.5
pair_coeff      1 1 1.0  1.0 1.0 1.0 2.5
pair_coeff      2 2 0.0  0.0 0.0 1.0 0.0
pair_coeff      1 2 1.0  0.2 1.0 0.2 2.5

# use fix SRD to push small particles out from inside big ones
# if comment out, big particles won't see SRD particles

timestep        0.0002

fix             1 big rigid molecule
  100 rigid bodies with 400 atoms
fix             2 small srd 20 big 1.0 0.25 49894                 search 0.2 cubic warn 0.0001 shift yes 49829                 overlap yes collision noslip

fix             3 all deform 1 x scale 1.25 y scale 1.25
fix             4 all enforce2d

# diagnostics

compute         tsmall small temp/deform
compute         tbig big temp
variable        pebig equal pe*atoms/count(big)
variable        ebig equal etotal*atoms/count(big)

compute_modify  tbig extra/dof -350

compute         1 big erotate/asphere
compute         2 all ke
compute         3 all pe
variable        toteng equal (c_1+c_2+c_3)/atoms

thermo          1000
thermo_style    custom step c_tsmall f_2[9] c_1 etotal                 v_pebig v_ebig press
thermo_modify   temp tbig

compute         10 big property/atom end1x end1y end2x end2y

#dump           1 all custom 500 dump1.atom.srd id type x y z ix iy iz
#dump           2 all custom 500 dump1.line.srd id type #               c_10[1] c_10[2] c_10[3] c_10[4]

run             10000

CITE-CITE-CITE-CITE-CITE-CITE-CITE-CITE-CITE-CITE-CITE-CITE-CITE

Your simulation uses code contributions which should be cited:

- Type Label Framework: https://doi.org/10.1021/acs.jpcb.3c08419

@Article{Gissinger24,
 author = {Jacob R. Gissinger, Ilia Nikiforov, Yaser Afshar, Brendon Waters, Moon-ki Choi, Daniel S. Karls, Alexander Stukowski, Wonpil Im, Hendrik Heinz, Axel Kohlmeyer, and Ellad B. Tadmor},
 title = {Type Label Framework for Bonded Force Fields in LAMMPS},
 journal = {J. Phys. Chem. B},
 year =    2024,
 volume =  128,
 number =  13,
 pages =   {3282â€“-3297}
}

- neighbor multi command: doi:10.1016/j.cpc.2008.03.005, doi:10.1007/s40571-020-00361-2

@Article{Intveld08,
 author =  {in 't Veld, P. J. and S. J.~Plimpton and G. S. Grest},
 title =   {Accurate and Efficient Methods for Modeling Colloidal
            Mixtures in an Explicit Solvent using Molecular Dynamics},
 journal = {Comput.\ Phys.\ Commut.},
 year =    2008,
 volume =  179,
 pages =   {320--329}
}

@article{Shire2020,
 author = {Shire, Tom and Hanley, Kevin J. and Stratford, Kevin},
 title = {{DEM} Simulations of Polydisperse Media: Efficient Contact
          Detection Applied to Investigate the Quasi-Static Limit},
 journal = {Computational Particle Mechanics},
 year = {2020}
@article{Monti2022,
 author = {Monti, Joseph M. and Clemmer, Joel T. and Srivastava,
           Ishan and Silbert, Leonardo E. and Grest, Gary S.
           and Lechman, Jeremy B.},
 title = {Large-scale frictionless jamming with power-law particle
          size distributions},
 journal = {Phys. Rev. E},
 volume = {106}
 issue = {3}
 year = {2022}
}

- fix srd command: doi:10.1063/1.3419070

@Article{Petersen10,
 author = {M. K. Petersen and J. B. Lechman and S. J. Plimpton and
 G. S. Grest and in 't Veld, P. J. and P. R. Schunk},
 title =   {Mesoscale Hydrodynamics via Stochastic Rotation
    Dynamics: Comparison with {L}ennard-{J}ones Fluid},
 journal = {J.~Chem.\ Phys.},
 year =    2010,
 volume =  132,
 pages =   174106
}

CITE-CITE-CITE-CITE-CITE-CITE-CITE-CITE-CITE-CITE-CITE-CITE-CITE

Generated 0 of 1 mixed pair_coeff terms from geometric mixing rule
SRD info:
  SRD/big particles = 19884 400
  big particle diameter max/min = 1.9988171 0.50330564
  SRD temperature & lamda = 1 0.04
  SRD max distance & max velocity = 0.16 40
  SRD grid counts: 230 230 1
  SRD grid size: request, actual (xyz) = 0.25, 0.25040659 0.25040659 1
  SRD per actual grid cell = 0.45503978
  SRD viscosity = 1.0732692
  big/SRD mass density ratio = 12.298053
  # of rescaled SRD velocities = 0
  ave/max small velocity = 15.906001 29.105426
  ave/max big velocity = 0 0
Step        c_tsmall        f_2[9]          c_1           TotEng        v_pebig         v_ebig         Press
0   1.4809886      0              0              0              0              0              0
Averages over the last 6 of 11 rows, steps 5000 to 10000:
c_tsmall f_2[9] c_1 TotEng v_pebig v_ebig Press
1.05397 1.01564 0.000623972 0.00531475 0 0.269511 0.195308
Loop time of 1.2997 on 8 procs for 10000 steps with 20284 atoms

#undump          1
#undump          2
unfix           3

change_box      all triclinic
Changing box ...
  triclinic box = (-35.995947 -35.995947 -0.5) to (35.995947 35.995947 0.5) with tilt (0 0 0)

fix             2 small srd 20 big 1.0 0.25 49894                 search 0.2 cubic warn 0.0001 shift yes 49829                 overlap yes collision noslip #tstat yes

#dump           1 all custom 500 dump2.atom.srd id type x y z ix iy iz
#dump           2 all custom 500 dump2.line.srd id type #               c_10[1] c_10[2] c_10[3] c_10[4]

fix             3 all deform 1 xy erate 0.0002 units box remap v

run             40000
Generated 0 of 1 mixed pair_coeff terms from geometric mixing rule
SRD info:
  SRD/big particles = 19884 400
  big particle diameter max/min = 1.9988171 0.50330564
  SRD temperature & lamda = 1 0.04
  SRD max distance & max velocity = 0.16 40
  SRD grid counts: 288 288 1
  SRD grid size: request, actual (xyz) = 0.25, 0.24997185 0.24997185 1
  SRD per actual grid cell = 0.26976265
  SRD viscosity = 1.5799049
  big/SRD mass density ratio = 20.672578
  # of rescaled SRD velocities = 1
  ave/max small velocity = 12.481632 40
  ave/max big velocity = 0.58815233 1.5489134
Step        c_tsmall        f_2[9]          c_1           TotEng        v_pebig         v_ebig         Press
10000   0.98889306     0              0.00050595647  0.0051153289   0              0.25939833     0.020019811
Averages over the last 9 of 17 rows, steps 18000 to 26000:
c_tsmall f_2[9] c_1 TotEng v_pebig v_ebig Press
0.988885 0.989107 0.000577945 0.00552762 -0.00617902 0.280305 0.191251
     27
