LAMMPS (21 Nov 2023 - Development - patch_21Nov2023-665-g17f869bf5e)
# SRD diffusion demo - poydisperse spheres

units           lj
atom_style      sphere
atom_modify     first big
dimension       2

# create big particles with 3 different types and diameters

lattice         sq 0.3
Lattice spacing in x,y,z = 1.8257419 1.8257419 1.8257419
region          box block 0 10 0 10 -0.5 0.5
create_box      4 box
Created orthogonal box = (0 0 -0.91287093) to (18.257419 18.257419 0.91287093)
create_atoms    1 region box
Created 100 atoms

group           big type 1
100 atoms in group big
set             group big type/fraction 2 0.33 394895
Setting atom values ...
  35 settings made for type/fraction
set             group big type/fraction 3 0.5 989894
Setting atom values ...
  57 settings made for type/fraction
group           big type 2 3
100 atoms in group big

set             type 1*3 mass 1.0
Setting atom values ...
  100 settings made for mass
velocity        big create 1.44 87287 loop geom

# equilibrate big particles, repulsive only to prevent aggregation

pair_style      lj/cut 1.12
pair_coeff      1 1 1.0 1.0 1.12
pair_coeff      2 2 1.0 2.0 2.24
pair_coeff      3 3 1.0 1.5 1.68
pair_coeff      4 4 0.0 1.0 0.0

neighbor        0.3 bin
neigh_modify    delay 0 every 1 check yes

fix             1 big nve
fix             2 all enforce2d

#dump           1 all atom 10 dump.poly.equil

run             1000
Generated 6 of 6 mixed pair_coeff terms from geometric mixing rule
Step          Temp          E_pair         E_mol          TotEng         Press
0   1.44          -0.16013916     0              1.2654608      1.1298975
Loop time of 0.00891987 on 4 procs for 1000 steps with 100 atoms

#undump         1
unfix           1
unfix           2

# add small particles as hi density lattice

region          plane block INF INF INF INF -0.001 0.001 units box
lattice         sq 250.0
Lattice spacing in x,y,z = 0.063245553 0.063245553 0.063245553
create_atoms    4 region plane
Created 83521 atoms

set             type 4 mass 0.1
Setting atom values ...
  83521 settings made for mass
group           small type 4
83521 atoms in group small
velocity        small create 1.0 593849 loop geom

# delete overlaps
# must set *-4 cutoffs to non-zero values

pair_style      lj/cut 2.5
pair_coeff      1 1 1.0 1.0
pair_coeff      2 2 1.0 2.0
pair_coeff      3 3 1.0 1.5
pair_coeff      1 4 0.0 1.0 0.5
pair_coeff      2 4 0.0 1.0 1.0
pair_coeff      3 4 0.0 1.0 0.75
pair_coeff      4 4 0.0 1.0 0.0

delete_atoms    overlap 1.0 small big
System init for delete_atoms ...
Generated 3 of 6 mixed pair_coeff terms from geometric mixing rule
Deleted 63410 atoms, new total = 20211

# SRD run

reset_timestep  0

neighbor        0.3 multi
neigh_modify    delay 0 every 1 check yes

comm_modify     mode multi group big vel yes
neigh_modify    include big

# no pairwise interactions with small particles

pair_style      lj/cut 1.12
pair_coeff      1 1 1.0 1.0 1.12
pair_coeff      2 2 1.0 2.0 2.24
pair_coeff      3 3 1.0 1.5 1.68
pair_coeff      4 4 0.0 1.0 0.0

# use fix SRD to push small particles out from inside big ones
# if comment out, big particles won't see SRD particles

timestep        0.001

fix             1 big nve
fix             2 small srd 20 big 1.0 0.25 49894 shift yes 54979                   search 0.2 inside ignore
fix             3 all enforce2d

# diagnostics

compute         tbig big temp/sphere
variable        pebig equal pe*atoms/count(big)
variable        ebig equal etotal*atoms/count(big)
thermo_style    custom step temp f_2[8] etotal v_pebig v_ebig press                 f_2[1] f_2[2] f_2[3] f_2[4] f_2[5]                 f_2[6] f_2[7] f_2[8] f_2[9] f_2[10] f_2[11]

thermo_modify   temp tbig
thermo          1000

#dump           1 all atom 1000 dump.poly

#dump           1 all image 1000 image.*.jpg type type zoom 1.6
#dump_modify    1 pad 6 adiam 1 1 adiam 2 2.0 adiam 3 1.5 adiam 4 0.1

run             10000

CITE-CITE-CITE-CITE-CITE-CITE-CITE-CITE-CITE-CITE-CITE-CITE-CITE

Your simulation uses code contributions which should be cited:

- neighbor multi command: doi:10.1016/j.cpc.2008.03.005, doi:10.1007/s40571-020-00361-2

@Article{Intveld08,
 author =  {in 't Veld, P. J. and S. J.~Plimpton and G. S. Grest},
 title =   {Accurate and Efficient Methods for Modeling Colloidal
            Mixtures in an Explicit Solvent using Molecular Dynamics},
 journal = {Comput.\ Phys.\ Commut.},
 year =    2008,
 volume =  179,
 pages =   {320--329}
}

@article{Shire2020,
 author = {Shire, Tom and Hanley, Kevin J. and Stratford, Kevin},
 title = {{DEM} Simulations of Polydisperse Media: Efficient Contact
          Detection Applied to Investigate the Quasi-Static Limit},
 journal = {Computational Particle Mechanics},
 year = {2020}
@article{Monti2022,
 author = {Monti, Joseph M. and Clemmer, Joel T. and Srivastava,
           Ishan and Silbert, Leonardo E. and Grest, Gary S.
           and Lechman, Jeremy B.},
 title = {Large-scale frictionless jamming with power-law particle
          size distributions},
 journal = {Phys. Rev. E},
 volume = {106}
 issue = {3}
 year = {2022}
}

- fix srd command: doi:10.1063/1.3419070

@Article{Petersen10,
 author = {M. K. Petersen and J. B. Lechman and S. J. Plimpton and
 G. S. Grest and in 't Veld, P. J. and P. R. Schunk},
 title =   {Mesoscale Hydrodynamics via Stochastic Rotation
    Dynamics: Comparison with {L}ennard-{J}ones Fluid},
 journal = {J.~Chem.\ Phys.},
 year =    2010,
 volume =  132,
 pages =   174106
}

CITE-CITE-CITE-CITE-CITE-CITE-CITE-CITE-CITE-CITE-CITE-CITE-CITE

Generated 3 of 6 mixed pair_coeff terms from geometric mixing rule
SRD info:
  SRD/big particles = 20111 100
  big particle diameter max/min = 1 1
  SRD temperature & lamda = 1 0.063245553
  SRD max distance & max velocity = 0.25298221 12.649111
  SRD grid counts: 73 73 1
  SRD grid size: request, actual (xyz) = 0.25, 0.25010162 0.25010162 1.8257419
  SRD per actual grid cell = 4.9371727
  SRD viscosity = 0.23321983
  big/SRD mass density ratio = 0.16131131
  # of rescaled SRD velocities = 0
  ave/max small velocity = 4.1934421 7.74495
  ave/max big velocity = 1.4399093 3.5724039
Step          Temp          f_2[8]         TotEng        v_pebig         v_ebig         Press          f_2[1]         f_2[2]         f_2[3]         f_2[4]         f_2[5]         f_2[6]         f_2[7]         f_2[8]         f_2[9]        f_2[10]        f_2[11]
0   0.88820023     0              0.0050232797  -0.30816328     1.0152551      1.5440006      0              0              0              0              0              0              0              0              0              0              0
Averages over the last 6 of 11 rows, steps 5000 to 10000:
Temp f_2[8] TotEng v_pebig v_ebig Press f_2[1] f_2[2] f_2[3] f_2[4] f_2[5] f_2[6] f_2[7] f_2[8] f_2[9] f_2[10] f_2[11]
0.854625 4039 0.00426954 -0.410475 0.862916 1.71357 8284 27.3333 27.3333 0 5971.67 25600 5329 4039 1.17271 0 5
Loop time of 1.82855 on 4 procs for 10000 steps with 20211 atoms
