LAMMPS (17 Apr 2024 - Development - patch_5May2020-18508-g3c0eaf6870-modified)
# ------ 2D Poiseuille flow ------ #

dimension          2
units              lj
atom_style         rheo
boundary           p p p
comm_modify        vel yes

# ------ Create simulation box ------ #

variable           n equal 1.0
variable           cut equal 3.0

region             box block 0 20 -10 10 -0.01 0.01
create_box         2 box
Created orthogonal box = (0 -10 -0.01) to (20 10 0.01)
lattice            sq 1
Lattice spacing in x,y,z = 1 1 1

region             inner   block INF INF -7.5 7.5 INF INF units box
region             walls   block INF INF -7.5 7.5 INF INF units box side out

create_atoms       2 region walls
Created 100 atoms
create_atoms       1 region inner
Created 300 atoms

group              fluid type 1
300 atoms in group fluid
group              rig type 2
100 atoms in group rig

displace_atoms     fluid random 0.1 0.1 0 135414 units box
Displacing atoms ...

# ------ Model parameters ------ #

variable           rho0 equal 1.0
variable           cs equal 1.0
variable           mp equal 1/1
variable           zeta equal 1.0
variable	       kappa equal 1.0*1/1
variable           fext equal 1e-4/1
variable           dt_max equal  0.1*3/1/3
variable           Dr equal 0.05*3*1

variable           eta equal 0.1
variable           gd0 equal 5e-4
variable           npow equal 0.5
variable           K equal 0.001

mass               * 1
set                group all rheo/rho 1
Setting atom values ...
  400 settings made for rheo/rho
set                group all rheo/status 0
Setting atom values ...
  400 settings made for rheo/status
set                group rig rheo/status 1
Setting atom values ...
  100 settings made for rheo/status

timestep           0.1

pair_style         rheo 3 artificial/visc 1 rho/damp 0.15
pair_coeff         * *

# ------ Fixes & computes ------ #

fix                1 all rheo 3 quintic 0 shift
fix                2 all rheo/viscosity * constant 0.1
fix                3 all rheo/pressure * linear
fix                4 rig setforce 0.0 0.0 0.0
fix                5 fluid addforce 0.0001 0.0 0.0
fix                6 all enforce2d

compute            rho all rheo/property/atom rho

# ------ Output & Run ------ #

thermo             200
thermo_style       custom step time ke press

dump               1 all custom 200 atomDump id type x y vx vy fx fy c_rho

run                20000

CITE-CITE-CITE-CITE-CITE-CITE-CITE-CITE-CITE-CITE-CITE-CITE-CITE

Your simulation uses code contributions which should be cited:

- @article{PalermoInPrep,
 journal = {in prep},
 title = {RHEO: A Hybrid Mesh-Free Model Framework for Dynamic Multi-Phase Flows},
 year = {2024},
 author = {Eric T. Palermo and Ki T. Wolf and Joel T. Clemmer and Thomas C. O'Connor},
}

CITE-CITE-CITE-CITE-CITE-CITE-CITE-CITE-CITE-CITE-CITE-CITE-CITE

Generated 0 of 1 mixed pair_coeff terms from geometric mixing rule
Step          Time          KinEng         Press
0   0              0              0
Averages over the last 51 of 101 rows, steps 10000 to 20000:
KinEng Press
0.000161747 0.000650771
Loop time of 15.6198 on 4 procs for 20000 steps with 400 atoms
